94
 energy: -19.181677504387 gnorm: 0.000476198004 xtb: 6.5.0 (97a52f5)
C            1.70498669229508       -0.82508217534591       -2.44489845969675
C            0.73248302187402       -0.45899876011465       -1.37953335081290
C           -0.54573718443353       -0.97780164945739       -1.42490746322374
C           -1.49959530024904       -0.70554790555103       -0.44511643696044
N           -2.83307976165477       -1.21548874544439       -0.55661639168763
C           -3.90935656899027       -0.69328224905782        0.23846299550393
C           -3.89277772293155       -0.76350571074667        1.62909867931118
C           -4.93616877717828       -0.25552061522768        2.36615677820552
C           -6.01468432670449        0.31760697600889        1.72417909525854
C           -6.05705897085245        0.36491305594907        0.34407028863495
C           -5.02218647192183       -0.14947732156904       -0.41919707674991
C           -5.01808130456477       -0.14297471176257       -1.95842789905533
C           -6.44910614038106       -0.00932050381439       -2.51458092465406
C           -4.17815005614999        1.05061824548411       -2.44232170284183
C           -4.35375735266147       -1.44148668241950       -2.45018562352073
C           -4.76277437289355       -2.13041963417219       -3.57990305877927
C           -4.12496537413584       -3.29027729352384       -3.97620395811644
C           -3.06616639737927       -3.78526244545165       -3.24276173795511
C           -2.63853166152114       -3.11438760413925       -2.12169977231646
C           -3.25865689653484       -1.93239704117044       -1.72546363305522
C           -1.12994196165564        0.13994095769690        0.59832932384846
C            0.13201686856842        0.67348087465476        0.66088738673065
C            1.08108279487948        0.40589713752510       -0.32505867742190
C            2.40839212329985        1.05673571075439       -0.23168328907126
C            2.90672880747603        1.78506946522018       -1.29315472760258
C            4.12499940391477        2.42073462734626       -1.16216385516200
C            4.65710940523902        3.27134614270621       -2.24960253555556
C            5.14553815154151        4.53508542078962       -1.91968419145648
C            5.59533363279507        5.40123079007346       -2.88295953608182
C            5.59228787220278        5.04031392550797       -4.22809581652085
N            5.97419591054770        5.97120985753985       -5.24706362326755
C            5.71556994912239        5.70458268763023       -6.63450222789459
C            6.27718818652615        4.60872826954950       -7.28453750504217
C            6.01254553109907        4.37460999927455       -8.61307684092361
C            5.19327149375553        5.23752008548659       -9.31176864965970
C            4.65159946911046        6.34285013679592       -8.68421441601211
C            4.91114748362298        6.60365395321018       -7.34903462475406
C            4.34383562637446        7.81949494892890       -6.59447485672507
C            3.93756437468025        8.93746457772303       -7.57430219332891
C            3.10410832388702        7.37102545415994       -5.80297672136219
C            5.40776963655498        8.31699856023353       -5.59950618098700
C            5.61015455929369        9.65427414008280       -5.30146703866547
C            6.58319141265626       10.04320053228153       -4.40095294326817
C            7.37786996397106        9.09739754175154       -3.78622325357574
C            7.18917945613013        7.76353142297306       -4.06004953992201
C            6.19408231216814        7.35786478478643       -4.94544638870435
C            5.12011045266454        3.76981673102623       -4.55430347492054
C            4.67603094828535        2.87509658271045       -3.60106121192023
C            4.23918433626982        1.51872442883249       -4.03137323474427
N            4.80360193615097        2.34612909404996       -0.01581308380043
C            4.23110512640411        1.62575284897425        0.92300886853626
N            3.08613784567967        0.98047758963343        0.91448967349785
H            1.55313335497806       -1.85349495588295       -2.77555780927653
H            2.73150397839950       -0.74812054030255       -2.08511669104074
H            1.59382602437085       -0.17540091537569       -3.31365139155530
H           -0.81523319336655       -1.59715217810276       -2.25902816929488
H           -3.06364845544773       -1.24531806899402        2.11764966766021
H           -4.91311388514731       -0.30803434949198        3.44245232687804
H           -6.83064298037533        0.72147844217325        2.30114486812046
H           -6.90965182478736        0.80845430428627       -0.13785480420676
H           -6.91464325047632        0.91896556540456       -2.18701288181611
H           -7.07161827039362       -0.84108088358141       -2.18643161121716
H           -6.44905317827323        0.01208930156823       -3.60327127869596
H           -4.60423578606098        1.99174083762557       -2.09624845017285
H           -4.12961148590471        1.07609913764636       -3.53049331849509
H           -3.15964289205485        0.98196717879692       -2.06155876083769
H           -5.58803375109306       -1.76290632405513       -4.16278562150160
H           -4.45919917146965       -3.81405560827283       -4.85696837373845
H           -2.57784921727955       -4.69691068761946       -3.54633949318320
H           -1.83125926963664       -3.50403331207428       -1.52599924517971
H           -1.85338904559627        0.40456855365083        1.34658901411139
H            0.40542620146097        1.32948505949602        1.46944195442953
H            2.32265811105821        1.90539424577278       -2.18655968207189
H            5.14345745406463        4.82865790974829       -0.88401202545736
H            5.92091446542598        6.38501298652231       -2.60028476078714
H            6.93814744133354        3.95996346159856       -6.73628105445941
H            6.44639311913018        3.52119412662139       -9.10821795561461
H            4.98193098680379        5.05280018773057      -10.35245173845146
H            4.01996669138571        7.00617395884803       -9.24719214987456
H            3.16994539723349        8.59547061696798       -8.26678849580236
H            4.79629080805922        9.27694363157196       -8.15253113449696
H            3.51864672470768        9.79248952980646       -7.04597411307903
H            2.33278115840883        6.98997015922275       -6.47148975151458
H            2.68527420885751        8.20039577059168       -5.23395211950105
H            3.36321362914638        6.57858736111247       -5.10160888887180
H            5.00415864669491       10.40661730745695       -5.77328632681073
H            6.72709686849802       11.08899234744025       -4.18325877242937
H            8.14633620361083        9.40361067620859       -3.09528825366239
H            7.82166227883280        7.01819704395708       -3.60974539426539
H            5.07988862338153        3.47627856370352       -5.58571993148210
H            4.82760686480990        1.17105772373146       -4.88168640461309
H            3.19107329060528        1.52288354730574       -4.33249551424791
H            4.36790585736936        0.79029127738654       -3.23028288220237
H            4.78428076240647        1.56106050139074        1.84945245685446
