110
 energy: -23.066402668864 gnorm: 0.000439965920 xtb: 6.5.0 (97a52f5)
C            2.77669362624448       -0.18354584831981       -0.44972282168860
C            1.28907753487737       -0.12827983712832       -0.41374289410738
C            0.53056193728405       -1.18129957615116       -0.90624916630432
C           -0.84546275978740       -1.13177503763920       -0.88250242810257
C           -1.50780562312460       -0.02194937940372       -0.35911285612949
C           -2.99098336361205        0.00461944847698       -0.26709201143969
C           -3.69397923805812        0.61923428493925       -1.29470604031975
C           -5.08443804202050        0.68040125616815       -1.32751923841038
C           -5.79405899577583        1.35118522317262       -2.39569622993074
C           -5.23676416768151        2.04495828052608       -3.40538647647847
C           -5.98057680223316        2.69208386272758       -4.46765254044544
C           -5.33018234624458        3.58435244292853       -5.32703715452437
C           -6.00974458863024        4.21535316240331       -6.33837979507628
C           -7.36895612988166        3.97931174269413       -6.54567894016715
N           -8.07852174180829        4.64133649052762       -7.59320347065099
C           -7.39089689215612        5.08749602973622       -8.77341384653434
C           -7.69200865384185        6.32266348455596       -9.34188046791210
C           -7.03751027012559        6.75339926825839      -10.47380949290045
C           -6.07268167350279        5.95786446091893      -11.06075075324372
C           -5.76644897580898        4.72762720625900      -10.51185283453402
C           -6.41948313043323        4.29470670884497       -9.37967020169443
C           -9.48737498838015        4.89685350833889       -7.47239781712635
C          -10.32796598030646        4.75578149388861       -8.57375463521999
C          -11.67638575048154        5.01162496407462       -8.46580261747360
C          -12.21001941779138        5.41519493425174       -7.25719632861511
C          -11.38858570916043        5.56384150424935       -6.15646980424454
C          -10.03977188687795        5.30881301031218       -6.26205927032819
C           -8.01810648008971        3.08130017854873       -5.69809623800266
C           -7.34315550356073        2.45326301079045       -4.68166023148860
C           -5.80541657832798        0.07457172186276       -0.26843522501547
C           -7.29019827153293        0.08313210419072       -0.23759924007305
C           -8.03541144991042       -0.54010672475298       -1.23766634811342
C           -9.41207066918625       -0.51163091995561       -1.21219899390450
C          -10.09126697591408        0.13324626295722       -0.18715638829916
C          -11.57985563077576        0.16307150636044       -0.14814468824396
C           -9.35274328954972        0.74266950226163        0.81724764029143
C           -7.97583812729602        0.71922438960303        0.79555833832372
C           -5.10403211763094       -0.52182711579769        0.76868374107058
C           -3.71138072725929       -0.57562104783716        0.81336074811044
C           -3.10658105139542       -1.21771765697248        1.96725117231729
C           -1.79387522445277       -1.34593439558708        2.23553177779313
C           -1.21853049881320       -1.98431074548104        3.39925882028825
C            0.17011462272701       -2.13948805470415        3.47237420864017
C            0.75946470199095       -2.73538777433419        4.55819766535054
C           -0.01014325844576       -3.20123663383045        5.62435268926101
N            0.60409246181038       -3.82101431156677        6.75530614885969
C            1.93522393834233       -3.45402832292800        7.15240243395997
C            2.83271955267050       -4.42065404759204        7.59918803336556
C            4.10605249284472       -4.07062347498504        7.98839433263322
C            4.50622263669466       -2.74929309890687        7.94069919571937
C            3.62636577939339       -1.77827602612983        7.50318843429140
C            2.35244584846898       -2.12582409633470        7.11344387437312
C           -0.10283625790367       -4.81386645508555        7.51559664255717
C            0.00600852982857       -4.85333564161932        8.90340520968263
C           -0.66419976985221       -5.80859456899508        9.63388954463614
C           -1.45416624904124       -6.74285325755052        8.99247607214873
C           -1.56979959215083       -6.71899516278859        7.61607978251521
C           -0.90004082951720       -5.76496254981263        6.88343232136736
C           -1.39500975036423       -3.04469339190953        5.55642095865462
C           -1.98820272712546       -2.45180603570153        4.46985862279130
C           -0.74367227818367        1.04808350389818        0.10436268432659
C            0.63209358077273        0.99183697390895        0.07719648894473
H            3.13534151012929       -1.20454374944425       -0.31107967481325
H            3.21329204141617        0.42961937125705        0.33997423823287
H            3.15513227387089        0.17954592482311       -1.40624005829335
H            1.03216992879062       -2.04675623708746       -1.30469014374917
H           -1.42778213845338       -1.95950738325551       -1.24945069568000
H           -3.12577019240000        1.05295633302039       -2.09617915312115
H           -6.86545155022025        1.30932460143627       -2.34835486563825
H           -4.16847616418171        2.15542567066381       -3.43403671215048
H           -4.28210291576402        3.78105905786693       -5.17860587936358
H           -5.50159372358203        4.91620685609119       -6.97712242434948
H           -8.44058609307031        6.93911129538544       -8.87546057491666
H           -7.27763110769997        7.71305577652102      -10.90182582226223
H           -5.56043836625455        6.29607345783141      -11.94672828900916
H           -5.01619845976858        4.10514850939167      -10.97165426088559
H           -6.19433726607132        3.33234351635511       -8.95406020978835
H           -9.90562382693890        4.43669491470273       -9.51064745642178
H          -12.31650657203048        4.89672936676186       -9.32536053393766
H          -13.26575632786607        5.61563167959192       -7.17364905238013
H          -11.80384021080962        5.88226644199938       -5.21416005786912
H           -9.39224612068149        5.43679147443297       -5.41218537043562
H           -9.06109656733530        2.87507194510269       -5.86318625560238
H           -7.86647741957503        1.75400330736726       -4.05417778813896
H           -7.51750353194647       -1.04977382781356       -2.03222083166903
H           -9.97494636846156       -0.99509384545874       -1.99241278271641
H          -12.01123638944203       -0.26958230946781       -1.05185475760812
H          -11.94613480725667        1.18717103730009       -0.06247262423674
H          -11.95680099730328       -0.40197197062233        0.70556687960648
H           -9.87186020020790        1.24027359600603        1.61877424197032
H           -7.41151283400477        1.20299614322236        1.57431088189041
H           -5.66615853378797       -0.96509230367157        1.57133598516968
H           -3.79995975495269       -1.63053886359949        2.67740461409364
H           -1.08368294798810       -0.94819453924860        1.53993310871441
H            0.77672757792253       -1.78684773090582        2.65550386416269
H            1.82710767063071       -2.86350529255252        4.59366192012135
H            2.51550994687784       -5.44849024654886        7.62836341698758
H            4.79171365059023       -4.82868297261881        8.33045259619843
H            5.50315652474712       -2.47609209211697        8.24601662645821
H            3.93687581227503       -0.74666640195459        7.46920138755174
H            1.65811644534082       -1.37257019234347        6.78410544240435
H            0.61827843204264       -4.11862589070762        9.39659921561673
H           -0.57257890275404       -5.82717903755005       10.70768810690448
H           -1.97856739662678       -7.49039183712079        9.56511302259209
H           -2.18390011105136       -7.44937847896275        7.11488239666859
H           -0.97567430762621       -5.74914140108094        5.81012850793396
H           -1.99501763045967       -3.38438892110360        6.38238656124101
H           -3.05705525256909       -2.33652220656014        4.44871801815556
H           -1.24658600403117        1.91256141189390        0.50269452152860
H            1.21274237057261        1.82082530995527        0.44462062529538
