77
 energy: -15.601433563503 gnorm: 0.000586383379 xtb: 6.5.0 (97a52f5)
C            2.43377613045934        0.05975973049048        0.42534760266658
C            0.95139837258781        0.02912176255980        0.28704725734853
C            0.22566731818745       -1.10895941009196        0.60954200154452
C           -1.14714151388956       -1.12707328619890        0.49463632125404
C           -1.84231283705469       -0.00239518646979        0.05595976535006
C           -3.31666047402828       -0.02167910834692       -0.07362966031480
C           -3.94485905423080        0.60933690255415       -1.14100434446572
C           -5.32987076156597        0.59852129570675       -1.28733459944176
C           -5.98624337878717        1.26911119075310       -2.39631435431972
C           -5.39015969554931        2.06169201255380       -3.30242054281016
C           -6.06832267471230        2.71695434937955       -4.40396372692979
C           -5.40098985067025        3.70151239783377       -5.13960827917858
C           -6.01572756713486        4.34183503866404       -6.18597628588663
C           -7.32310618877982        4.02366846786559       -6.55233929182590
N           -7.96267951228892        4.69052150871901       -7.64232198471714
C           -7.18666110626184        5.20856901649310       -8.73477069039819
C           -7.50621636673484        6.43548159543044       -9.31060995822042
C           -6.76894848202986        6.93108105130493      -10.36226826674947
C           -5.70083478471473        6.20990519770086      -10.85927604980677
C           -5.37355850157071        4.98959838623048      -10.30109995143175
C           -6.10953385668910        4.49162940088331       -9.24961369066972
C           -9.38984720338469        4.85300328813909       -7.66040485892924
C          -10.10297846885415        4.71037119409624       -8.84789249949882
C          -11.47039212747989        4.86806054675282       -8.86921518192192
C          -12.15033114376438        5.17311095455402       -7.70625855023241
C          -11.45661890821421        5.32225679841171       -6.52116256593515
C          -10.08909551994867        5.16556260453841       -6.49738439507737
C           -7.98885736872503        3.03632509133474       -5.82634493412186
C           -7.37875270066813        2.39804331768766       -4.77553118920328
C           -6.11219040314507       -0.08184784871937       -0.33241759999372
C           -7.49982826744485       -0.05326912076550       -0.46698221550303
N           -8.65354401380557       -0.01702964240080       -0.61108344525348
C           -5.49110781217763       -0.73196897080025        0.75697229173584
N           -6.23550623884123       -1.41837133331694        1.75614666337833
C           -7.45295210490646       -2.20649987846029        1.47290782875036
C           -8.67091394001784       -1.60859707292073        2.18452725083234
C           -8.39982498198145       -1.45481813521560        3.69090230765523
C           -7.11013378538109       -0.65475343790825        3.94364021662666
C           -5.92374567484444       -1.27246170787934        3.19450948007568
C           -4.10362018658002       -0.67867267091054        0.86295381150230
C           -1.11041628314629        1.14033063354005       -0.25870899786192
C            0.26228993985428        1.15387655461548       -0.14230097345505
H            2.84539152081877       -0.94668489137554        0.51208696756148
H            2.72842494207051        0.62044426577383        1.31345726353457
H            2.89690179826526        0.53328992223658       -0.44150872054596
H            0.74890696757760       -1.98583245115495        0.95097958973348
H           -1.69491855569678       -2.02300467404732        0.73047429898500
H           -3.33487552613081        1.09688330012903       -1.87754965818300
H           -7.04966932106484        1.13156647840875       -2.46174378603275
H           -4.33793139808758        2.25690570716694       -3.20745193468608
H           -4.39205748174262        3.96135540711616       -4.86836064547922
H           -5.49713026735323        5.11172554367069       -6.72979107375374
H           -8.33563665445778        6.99459933983758       -8.91404675095893
H           -7.02502420781170        7.88312818692129      -10.79785939867869
H           -5.12386530786556        6.59864060334745      -11.68241549972921
H           -4.54181095016119        4.42523693721000      -10.69012965500163
H           -5.86847763452653        3.53536696183757       -8.81911005223188
H           -9.56746231423622        4.46560845805353       -9.74850373347745
H          -12.01118717424641        4.75178495433512       -9.79426644103897
H          -13.22102812697534        5.29505773814866       -7.72348139019525
H          -11.98647150293223        5.56246546171182       -5.61386547590773
H           -9.54129865688817        5.29318856892221       -5.58004502814233
H           -8.99065879314420        2.76909130839132       -6.11364707254300
H           -7.91206468598154        1.63110082457266       -4.24285221049818
H           -7.27666346012792       -3.23178261836314        1.81242800994708
H           -7.60096580081368       -2.26571278240558        0.38981682081313
H           -9.56565395147162       -2.22060741173827        2.00536763688862
H           -8.89301723984514       -0.62659552154382        1.74919147452826
H           -8.30657430240612       -2.44829244297682        4.14673178390957
H           -9.25504066382500       -0.98052662146434        4.19249652408170
H           -6.89692354054185       -0.58443838994297        5.01931288085261
H           -7.25143280113037        0.37736619063732        3.60023495167909
H           -5.68073070510842       -2.26073617630949        3.59622066235736
H           -5.02566148026394       -0.65687654612334        3.30788470499586
H           -3.62670130479715       -1.17964825164706        1.68442205063304
H           -1.63189367574167        2.02430052462461       -0.58292982890655
H            0.81572423552978        2.04554861765485       -0.38319097908402
