138
 energy: -28.889262842965 gnorm: 0.000399842573 xtb: 6.5.0 (97a52f5)
C            2.45696616323601       -1.24343188104111        2.01093020280990
C            0.99631790618807       -1.28969210336041        1.72374747174671
C            0.52448429508175       -1.80562894249621        0.52518092254612
C           -0.82493594944878       -1.82529857663070        0.24691818296534
C           -1.74955004434048       -1.32405257036943        1.16017862459576
C           -3.19966088641145       -1.33555719436448        0.86122049841391
C           -4.13156828527811       -1.68382760154498        1.83723872285580
C           -5.47981402104620       -1.66480033681027        1.56639186868871
C           -5.95457525680543       -1.29184005215230        0.30865708289611
C           -7.40257137101870       -1.14505978348482        0.04671024096696
C           -7.92496414648522       -1.24205645627495       -1.24429983561073
C           -9.23458435295082       -0.91493545257912       -1.49659157444266
C          -10.07710504316403       -0.45638585935697       -0.48467292442066
C          -11.44051165496864        0.01555310335810       -0.83195855765537
C          -12.41863830392313       -0.87882392313374       -1.26732018010055
C          -13.70562360107513       -0.45456589527796       -1.49570196387675
C          -14.06160884822481        0.88154745535736       -1.31396337289337
C          -15.46287465266351        1.32289230191714       -1.49648893505874
C          -15.76471045059709        2.49646758154621       -2.18316609833580
C          -17.07127636648951        2.90547096927493       -2.33945352740727
C          -18.11834652096854        2.15714590132347       -1.82014595683192
C          -19.52791391655317        2.61451267794685       -1.96842466397104
C          -17.82029595899705        0.99425238238487       -1.12405274606743
C          -16.51572045614913        0.58070807025196       -0.96618400752852
C          -13.07343591659741        1.78312875531272       -0.91984796321738
C          -11.78810492829797        1.35878439933437       -0.68210837526787
C           -9.58583202327480       -0.39519214020344        0.84354066639437
C          -10.41872342838050        0.10502591460042        1.96326699719557
C           -9.89945239527297        0.95980186911750        2.92518038366163
C          -10.69410335220528        1.35855129855041        4.11055840471600
C          -10.68850894039627        2.68486895105670        4.54483004937144
C          -11.37280666491730        3.05964662572797        5.67942775350660
C          -12.07345952822837        2.11994476937062        6.40932379255793
C          -12.08914079843090        0.80183226927114        5.99955447220811
C          -11.40716563646825        0.42410894438824        4.86521849228898
C           -8.51080420005231        1.47288109063866        2.83028689616381
C           -8.03944962028334        2.01533901028214        1.63629064363049
C           -6.71051100769728        2.38011115960583        1.46383740871411
C           -6.20707126459746        2.77988352784671        0.13289080053419
C           -6.98494791630872        3.54267716272571       -0.73658703674646
C           -6.52812221552623        3.86334775067476       -1.99376813002208
C           -5.27778491409404        3.43109720036727       -2.43419535444643
C           -4.78708344966274        3.76968796899469       -3.78962375020386
C           -4.11833686801323        2.82529080989408       -4.56535394882191
C           -3.65484994632116        3.14470214410460       -5.82313335072667
C           -3.84738369290841        4.41330992296957       -6.35132254697573
C           -3.31796481430814        4.76547101143895       -7.69808496696454
C           -4.50707932132592        5.35879280981683       -5.57915805790308
C           -4.97308758638554        5.04376777276311       -4.32124203880210
C           -4.50064046488104        2.66805599880273       -1.56464148253507
C           -4.95594162236391        2.35015897935330       -0.30731660016626
C           -5.84587776931014        2.26729664494355        2.55386866150515
C           -6.29130431236679        1.77289469002989        3.75440645246577
C           -7.60791475708178        1.34604519550656        3.91573032853394
C           -8.02331945789246        0.71364716268210        5.19247422571323
C           -8.11910187588738        1.46626426153811        6.36315723426753
C           -8.60267447721580        0.90537843060256        7.52076820029215
C           -8.99770690737052       -0.43168024898867        7.55780074312864
C           -9.58067868675047       -1.01555152140822        8.78665964256484
C           -9.22380665048449       -2.29123792166007        9.21730402113319
C           -9.78039221571631       -2.83229854537416       10.35585007915511
C          -10.70655070246688       -2.11872594209836       11.10370601436794
C          -11.32663532293793       -2.71334092139070       12.32022925852448
C          -11.07331629957989       -0.85241967968277       10.67094844348650
C          -10.51957637530248       -0.30719917387052        9.53337820909364
C           -8.86471765035948       -1.19392069802642        6.39766584047778
C           -8.38760937698588       -0.63291262762581        5.23754415268483
C          -11.82581621984335       -0.35334396145405        2.03877883754184
C          -12.87940183468616        0.54626805999272        2.21602735937298
C          -14.18428587534664        0.10909827146263        2.24769417222719
C          -14.46792271730000       -1.23435107165102        2.10380096675016
C          -13.44070054692688       -2.14030105668957        1.92802908876752
C          -12.13426677456190       -1.70679758923208        1.89397738033532
C           -8.26458625186840       -0.77454872201365        1.07037570260763
C           -5.01862051411072       -0.95460554147797       -0.66947171516656
C           -3.67045601209787       -0.97912665627321       -0.40064066619126
C           -1.27126476231860       -0.79794709785006        2.35800056935395
C            0.07919169281370       -0.77922450071574        2.63125826057444
H            2.98257694603405       -2.05880509451238        1.51181008059892
H            2.65074200352359       -1.33145472754886        3.08093755995760
H            2.88976566005716       -0.30315058532957        1.66648789661096
H            1.22841057996368       -2.19287029582690       -0.19175768643249
H           -1.17873255810224       -2.24017296680307       -0.68119986263628
H           -3.78176104968809       -1.97297972855783        2.81334956147025
H           -6.18055533948125       -1.93938370543966        2.33539919869211
H           -7.28711740052964       -1.56174836035147       -2.04995022510981
H           -9.61840025628668       -0.96654120765558       -2.50118164789273
H          -12.15823965607599       -1.91658288745758       -1.38573026679732
H          -14.45782827268207       -1.15724907422762       -1.81054102322658
H          -14.96171078625320        3.07971385525977       -2.60003319838975
H          -17.29136584308090        3.81632694394119       -2.86989937373327
H          -19.66199485094090        3.18653890325000       -2.88768498631073
H          -19.81904796302727        3.25008701989822       -1.13093806587837
H          -20.21500367120950        1.76778253245998       -2.00319128435364
H          -18.62430599291113        0.41593807861009       -0.70149450485168
H          -16.29508623973146       -0.31483956274942       -0.41114705343140
H          -13.33794270971708        2.81559835740080       -0.76929263749926
H          -11.03832114667025        2.05548641740867       -0.34879961803802
H          -10.13053344561349        3.41283363326980        3.98127217037474
H          -11.35596203944649        4.08795591404197        6.00204663199034
H          -12.60445364786308        2.41424297931889        7.29997674362870
H          -12.62860968522497        0.06555289639090        6.57282627254361
H          -11.40099228773090       -0.60724273114389        4.55793374774579
H           -8.70938082633494        2.07502320574627        0.79820654296197
H           -7.95232861319418        3.88468538862681       -0.41141025930465
H           -7.14458247577106        4.44296608484771       -2.65910126713038
H           -3.97516776304091        1.83290552209397       -4.17353372750098
H           -3.13494316676956        2.40651001853700       -6.40988363738762
H           -3.30877120205662        3.89642830681121       -8.35755888199374
H           -2.29735196888720        5.14400704426772       -7.62590240014975
H           -3.92922797191049        5.53440818282407       -8.17281032892577
H           -4.64941775700366        6.35038800981287       -5.97410436251013
H           -5.47450093045276        5.78991074644759       -3.72916728858226
H           -3.53073554089790        2.33079430164281       -1.88752265663089
H           -4.35759436153317        1.73247749413271        0.33993201098247
H           -4.81708699037671        2.56296252716295        2.44104120536452
H           -5.61113823422477        1.67198850931720        4.58281747524895
H           -7.84175835624135        2.50606493509997        6.33647408201757
H           -8.68883345668548        1.50080869588839        8.41335615515517
H           -8.49785470167596       -2.85028294012938        8.65230554270908
H           -9.49852494976530       -3.82105865024634       10.67580796376332
H          -10.67836246806122       -3.46988007697002       12.76481734917385
H          -12.27887184343081       -3.18714561352507       12.07741438061641
H          -11.51327596387114       -1.95135820272694       13.07846458283507
H          -11.80386681230619       -0.29743153884634       11.23469947441594
H          -10.82467755206504        0.66910587102764        9.19784891444866
H           -9.17497229277151       -2.22455816473673        6.41051520618360
H           -8.31825539405376       -1.22218401800540        4.33980368715295
H          -12.65674103928724        1.59474109371493        2.31416056260831
H          -14.98581502740163        0.81771856265565        2.37859869636741
H          -15.49017665698401       -1.57529798382874        2.12749066496288
H          -13.66251100767498       -3.18867465428909        1.81196129878110
H          -11.33171625849475       -2.40914694059534        1.74746031648327
H           -7.87597579223346       -0.69332136779872        2.06745827205801
H           -5.36211348873827       -0.62475937876507       -1.63443022100612
H           -2.96402113667713       -0.68889160339235       -1.15930882288038
H           -1.97147534982219       -0.38857882589694        3.06572800083683
H            0.43621389471602       -0.36136017205511        3.55718894568190
