118
 energy: -24.276312624401 gnorm: 0.000497609629 xtb: 6.5.0 (97a52f5)
C            1.45906029536873       -4.04097987202228        3.35134794327050
C            0.16903686109581       -3.45118799201790        2.89766140869727
C           -1.01299024092964       -4.16995275705279        2.99626898344751
C           -2.20448600980326       -3.63673450824213        2.55715361358153
C           -2.26270738775751       -2.35756912940090        1.99762752613987
C           -3.53928928827507       -1.78822353773472        1.52933807881574
C           -4.70990964038676       -2.18595053013467        2.09756334886456
C           -6.07238030105672       -1.86222407697952        1.72982231691047
C           -6.47752314766268       -0.92027779932833        0.83691841673691
C           -7.76775539993680       -0.96226113322795        0.10248455762500
C           -8.94635487692355       -0.65120634900829        0.79048581993782
C          -10.11981838192864       -0.40514428328511        0.12638644101049
C          -10.17010096621478       -0.44149269103969       -1.26912129287526
C          -11.42461841570293       -0.15434062700216       -1.99949269153569
C          -12.65464512469013       -0.60165002548680       -1.52247347496468
C          -13.81721832552947       -0.34080441967208       -2.21474175107406
C          -13.79185049169230        0.36859882120540       -3.40706106096057
C          -15.05246530785440        0.67258372340670       -4.13930698809681
C          -12.56975615449261        0.82379059674180       -3.88085735776673
C          -11.40470420474295        0.56485552358654       -3.19262814938094
C           -9.01958577459523       -0.78329602875075       -1.96236369146024
C           -7.80828251956681       -1.09145080312998       -1.33239873643174
C           -6.76994606811440       -1.76945233199586       -2.20529970564588
C           -5.66453723224227       -1.09551109320063       -2.84478542613747
C           -5.41235857945335       -1.28278377690088       -4.29299681308281
C           -4.11410028430657       -1.38309645639706       -4.79349766242673
C           -3.88831311872440       -1.51497675401183       -6.14545777397030
C           -4.95210160087044       -1.55745310142288       -7.02468558392893
C           -6.24483643807369       -1.47565583854743       -6.54653193440136
C           -6.47426970886665       -1.34312297703519       -5.19553538376544
C           -4.67322119136132       -0.36981620476627       -2.03377361697874
C           -4.60611731850094       -0.92871430798015       -0.64848363435161
C           -4.19310724559491        0.59919670226529        0.82363565816152
C           -4.29938843587182        0.93275332166045        2.30907731245925
C           -5.51627070305166        1.27447014879652        2.87638676333668
C           -5.60904757212462        1.59118589494539        4.21575042813175
C           -4.48226744079797        1.59416996736158        5.02280790106570
C           -4.58744950891210        1.90802858334911        6.47491262607389
C           -3.26259166302811        1.26388392757037        4.45289507417581
C           -3.17279382472414        0.94657148385782        3.11334958924741
C           -3.59842448506017        1.71769358220281        0.00134502561215
C           -3.54037977814706        1.76680077195731       -1.33590177114937
C           -4.15784343967663        0.87903705909359       -2.33046144392187
C           -4.38072147046906        1.46815150927372       -3.67720780345493
C           -3.30341822182898        1.75113044364932       -4.52081217809433
C           -3.51295020045097        2.20880243707512       -5.79877834632840
C           -4.80453875988727        2.41766415790186       -6.28349846142265
C           -5.02665482002033        2.85921461545053       -7.67834441992215
C           -5.98713615651814        3.82066291252634       -7.98524022522402
C           -6.18820866105956        4.22673821614060       -9.28658059281042
C           -5.43725765876793        3.69135207733612      -10.32351052100513
C           -5.67372196321755        4.11569702679833      -11.73139091172417
C           -4.48934455718199        2.72323177754441      -10.02366020083244
C           -4.28381641851546        2.31476153411374       -8.72403351418917
C           -5.87932016637810        2.17754328782381       -5.42711820778652
C           -5.67265485102241        1.71599747784361       -4.15011593500603
C           -7.06302317231020       -3.17143401155430       -2.56931043102234
C           -8.27758380196746       -3.77111159498654       -2.22493275398583
C           -8.53834101501206       -5.08615909686737       -2.53645004876450
C           -7.58931921261213       -5.84417304679487       -3.19232779709146
C           -6.37442935244031       -5.28094870872429       -3.52737080089810
C           -6.11245072050165       -3.96617918422560       -3.21537944048993
C           -5.49855262823439       -0.00503001004332        0.18266101071409
C           -3.49536854373673       -0.74476154190375        0.42959069849639
C           -1.06223451601581       -1.65181377009231        1.88224776063262
C            0.12641189062521       -2.18910267789346        2.32394436465093
H            1.30957430046577       -4.70491769878220        4.20408220339872
H            2.16212840706024       -3.26449616434952        3.65638110887726
H            1.92299708313280       -4.61968421749451        2.55135216814030
H           -0.98866512963932       -5.16054390398080        3.41801528104956
H           -3.10035388632961       -4.22947426274334        2.61754475216169
H           -4.62201582382641       -2.87957913319086        2.91669868882709
H           -6.83988080301419       -2.51600250957431        2.11205285324622
H           -8.90443383206237       -0.55287780345013        1.86198610448642
H          -11.00667946754991       -0.14083881393684        0.67609550632223
H          -12.68737436576068       -1.16977579838250       -0.60883365631354
H          -14.76176707230078       -0.68961628202134       -1.83305375117006
H          -15.79653167439570       -0.11009707622530       -3.98464086846625
H          -14.87472665902634        0.75209899673471       -5.21278161042582
H          -15.48046632710658        1.61627786267456       -3.79818460171524
H          -12.54022587246664        1.38776589067694       -4.79767287388840
H          -10.46446808516015        0.93102943310380       -3.56782222838865
H           -9.07575129941794       -0.88342655538024       -3.03141390329560
H           -3.28610258758066       -1.34179768277520       -4.10691145857359
H           -2.87907136858525       -1.57799057553971       -6.51851571090223
H           -4.77366963010926       -1.65418658015610       -8.08329189572630
H           -7.07561531918785       -1.51060463691767       -7.23232445977558
H           -7.48045502550674       -1.26951780394096       -4.82146715395974
H           -4.94973537990235       -1.97639241286699       -0.64315402700973
H           -6.39823574275090        1.28421117131302        2.25973564852298
H           -6.56412864670766        1.83835730142913        4.64710351476226
H           -5.37267022927617        2.64184539191630        6.66272168924541
H           -3.65247727676400        2.31889457701840        6.85865413065097
H           -4.82128194537446        1.01034234670226        7.04904737197738
H           -2.37978657228707        1.25585947870409        5.06929606290632
H           -2.21843442750455        0.70608119618981        2.68099605723726
H           -3.11937181154039        2.49817948114958        0.56792741522596
H           -3.04871384386585        2.62341414362143       -1.76882973894412
H           -2.30357582718246        1.57210796301843       -4.16438534722246
H           -2.67437436818769        2.40851725667950       -6.44347634670479
H           -6.56612358487896        4.25510767072837       -7.18850686180595
H           -6.93516282138163        4.96937336986052       -9.51036812036059
H           -5.98237240635675        5.16066316329409      -11.78060380458530
H           -6.45627139366684        3.51159731937334      -12.19202281938157
H           -4.76954468134701        4.01002419694244      -12.33228322347837
H           -3.91318520804105        2.28866236842504      -10.82286514221974
H           -3.55429667804070        1.55376413280968       -8.50603196718066
H           -6.88144810255185        2.32726603544704       -5.79038277480752
H           -6.50946474405765        1.50469639178814       -3.50648051580971
H           -9.01887279208779       -3.19481939436271       -1.70112733521658
H           -9.48446114799642       -5.52585436699022       -2.26507924806974
H           -7.79394659628365       -6.87390720697389       -3.43667107834176
H           -5.62796263404870       -5.87300739068795       -4.03165962401226
H           -5.15580594887203       -3.54217089761526       -3.46318234201272
H           -6.01699882054336        0.75524199512693       -0.42416629770358
H           -2.50370164400837       -0.60960785756412       -0.02531552779248
H           -1.06311300935191       -0.66788260465994        1.44847077337511
H            1.04064814178634       -1.62865403683778        2.22519085157900
