98
 energy: -20.180918153054 gnorm: 0.000250797600 xtb: 6.5.0 (97a52f5)
C            2.15445337778959       -2.64115850833062       -0.79184889194540
C            0.73713210599751       -2.18433553563869       -0.77831965898143
C           -0.30115009312238       -3.09384242841040       -0.63591606291650
C           -1.61107732386375       -2.66915298342284       -0.58862065517352
C           -1.92567993690683       -1.31515647857087       -0.67815879527583
C           -3.32264645366391       -0.84519158265135       -0.54499409799688
C           -3.79132878795621        0.26540729049039       -1.24547288105603
C           -5.05060186028624        0.76106148624226       -1.00735132691146
C           -5.88754046322558        0.19098371242867       -0.04963985222804
C           -7.19466373407648        0.83004327627734        0.24372338479281
C           -7.44643990368839        1.40461182532853        1.48813640019274
C           -8.67699290837186        1.95316731714563        1.77320192871356
C           -9.69132155098496        1.95522479333038        0.82577519576628
C          -11.03689217627946        2.50162892281962        1.15390616944168
C           -9.44058666804590        1.39133357981933       -0.41741671470068
C           -8.21087405867885        0.84448809458191       -0.70936386983035
C           -5.44259744899425       -0.95322504813378        0.65655901572788
C           -6.25586520543103       -1.58564280350193        1.72244317353577
C           -5.67779527115149       -1.96715632910142        2.92406186107880
C           -6.43085604166978       -2.73158539544959        3.94349916569977
C           -6.30870994382960       -2.40528472664036        5.29482257834903
C           -6.95831888198751       -3.14057159410613        6.26067674635294
C           -7.73907254793219       -4.22104595672373        5.90062849152752
C           -7.86812033855150       -4.56470255959923        4.56972568948953
C           -7.22112750890855       -3.83088480053066        3.60145511978181
C           -4.26183694990369       -1.64153748720533        3.21942865711731
C           -3.79229256312910       -0.34330296182324        3.03093326012470
C           -2.45331907255394       -0.01281601273287        3.17926120813689
C           -1.97597507241470        1.34550560016429        2.83753687571837
C           -0.79400806801779        1.52438846330000        2.12312837741577
C           -0.36671903822162        2.78548780945827        1.76988500879426
C           -1.10682887285885        3.90821828023046        2.11174680877180
C           -0.62824952791089        5.27161523557731        1.75100056631179
C           -2.28175335168220        3.73429184507723        2.82964083743288
C           -2.71380526065661        2.47461940496038        3.18357809038336
C           -1.56735348546446       -1.00918354593792        3.58844907139810
C           -2.00840477237944       -2.29082722581214        3.81342976919593
C           -3.34270979497243       -2.64129950692498        3.62048237563036
C           -3.76072930793793       -4.05636648038361        3.78354628278766
C           -4.24547715150155       -4.79067912167947        2.70242889454252
C           -4.68351927346230       -6.08519802135483        2.86974624700756
C           -4.64394068106983       -6.69334762753947        4.11645367397939
C           -5.16514739484043       -8.07538893265006        4.30397908543154
C           -4.15509117379419       -5.96779001602498        5.19395436648463
C           -3.71368732167748       -4.67321625124407        5.03194826174211
C           -7.69641089786896       -1.80452904334100        1.46265263232073
C           -8.66918855324308       -1.44018176863887        2.39594289179562
C          -10.00774852281544       -1.60801525230107        2.12278767361648
C          -10.40583257574775       -2.14163832921037        0.91326244056405
C           -9.45950264695092       -2.50784329563965       -0.02338738511408
C           -8.11961498351802       -2.34048847780853        0.24564642321651
C           -4.17538679921966       -1.45290299188668        0.36385896634690
C           -0.87989171193364       -0.40532460784649       -0.81497245753381
C            0.42848334349300       -0.83430695115507       -0.86123853288416
H            2.23740374763031       -3.65942282994194       -1.17469577442906
H            2.57579076540950       -2.62467893919989        0.21438412967142
H            2.76863326672458       -1.99872661248658       -1.42460937551028
H           -0.07170813103756       -4.14288926624641       -0.55574052200209
H           -2.40529399031708       -3.38751453634034       -0.47985757440423
H           -3.15078905739362        0.73997717582752       -1.96865065343180
H           -5.39598870268421        1.63066273810332       -1.53989574703382
H           -6.66940379634823        1.39662835497376        2.23273196300812
H           -8.86619517578087        2.37657722474623        2.74496843450105
H          -10.96708111394292        3.30952742053782        1.88372738919448
H          -11.67771924068941        1.72407373329121        1.57234004353163
H          -11.52784651021994        2.90007433649268        0.26481902993056
H          -10.22628330806264        1.37449083170027       -1.15349910929746
H           -8.02899204800931        0.39567831832997       -1.67081753971461
H           -5.68962726695786       -1.56967804454090        5.57309089922940
H           -6.85285653346061       -2.87526544874628        7.30007081020821
H           -8.24412657334055       -4.79782851089472        6.65831278770563
H           -8.47159236193903       -5.41224232305914        4.28817368185128
H           -7.30586538893785       -4.10932173572726        2.56533994449632
H           -4.47943217298721        0.41054950080508        2.69318910129766
H           -0.22535903955171        0.65944314309378        1.82796955675382
H            0.55005288610128        2.90955654007890        1.21877914454793
H           -0.09956823058729        5.26288114252110        0.79665774265450
H            0.05406494964014        5.65608530643130        2.51051669518029
H           -1.46054488885443        5.97130274868412        1.66132672768913
H           -2.85760279810481        4.59997060655260        3.10985303578205
H           -3.62714040856225        2.35360741434226        3.74036638020915
H           -0.52740831645225       -0.76433314859197        3.71937672573822
H           -1.31254459745040       -3.05569408313531        4.11307225322415
H           -4.29413871858311       -4.32603934359721        1.73344702143326
H           -5.07460259295529       -6.63460403278994        2.03028382413717
H           -5.04668286690525       -8.66796406692784        3.39562250006811
H           -6.22610537461249       -8.05671927365070        4.55763260064530
H           -4.63579836670495       -8.59066563774368        5.10676907231548
H           -4.13394984813107       -6.42645990271479        6.16789242126815
H           -3.35049043074896       -4.11233006535652        5.87595948777211
H           -8.35682659104059       -1.00990780544505        3.33180627716367
H          -10.74599889126508       -1.31677295518008        2.85212515150584
H          -11.45448486408414       -2.26890371648086        0.69892138702399
H           -9.77063736829498       -2.91995902597045       -0.96950844323583
H           -7.37925528521241       -2.61489606932338       -0.48609692185488
H           -3.81369906780788       -2.29751463756239        0.91886147031911
H           -1.10267319886118        0.64711787369585       -0.85263841305412
H            1.22757260786675       -0.11831869539462       -0.95307010168640
