218
 energy: -48.088308309753 gnorm: 0.000855858643 xtb: 6.5.0 (97a52f5)
C            1.80090588299370        1.53860702982544       -0.67936493704486
C            0.35334462938379        1.21334254115707       -0.80245629711177
C           -0.06915864728923        0.15584950912311       -1.59631224854290
C           -1.40858579215357       -0.13479541958860       -1.72805330425822
C           -2.36025486385186        0.63086938214244       -1.07010723625623
N           -3.76470754343260        0.32768784516010       -1.20752128101583
C           -4.56871379228070       -0.48961801948735       -0.39046922119884
C           -4.14055815793792       -1.22484995776109        0.79386407321300
C           -2.81203311143722       -1.27306013762338        1.21729562703141
C           -2.45279677636915       -1.97873471763728        2.33710408410468
C           -3.40646494912202       -2.66692330032197        3.08518133950976
N           -3.02788363494466       -3.39900410120397        4.25657311404538
C           -1.95100637555227       -2.93016339969210        5.07778440245025
C           -1.75639875132925       -1.56702138837693        5.29309212428816
C           -0.70705588450998       -1.11770248482614        6.05613198555733
C            0.19586987233631       -2.01305686424428        6.63476104124953
C            1.34224754664668       -1.52864663219997        7.42981496179359
C            2.58359161231820       -2.16567190791785        7.36011063284326
C            3.65623575261229       -1.70361226694599        8.08184356519203
C            3.53412215160088       -0.58846581287225        8.90851041046581
N            4.65730041593372       -0.10131394372265        9.65096357522892
C            5.97811920220375       -0.19231151246415        9.10091564469896
C            6.20721971840940        0.02991281287251        7.74385395613307
C            7.47570061673041       -0.05009655294069        7.22560007554991
C            8.56534435963179       -0.36577276481679        8.03732042252841
C            9.89771825920608       -0.43917877969886        7.44798874968604
N           10.16975797618148        0.03065039033416        6.23918574342531
C           11.47859418201292       -0.21892019218027        6.01548777326384
C           12.26234734161331        0.09000290700491        4.84669573264313
C           11.69110627662736        0.75590687141665        3.76082217152444
C           12.43987534980811        1.05060123246123        2.65260467541505
C           13.77742764694370        0.68494836714113        2.60618387877480
C           14.35711546782185        0.02843735226321        3.66350333754020
C           13.62338605244543       -0.29051172536721        4.81466323750423
C           14.21525124844364       -0.99441938822125        5.95776995064502
C           15.55668631648436       -1.40131154377146        5.96797923754702
C           16.09453727904205       -2.06468822567700        7.04207873657998
C           15.31410266814656       -2.35055138313753        8.15222176129688
C           14.00071536629923       -1.96753222857834        8.17860116823032
C           13.42778302834126       -1.28772966784920        7.09861954977402
C           12.04863940168964       -0.87742687610601        7.10620620532919
N           11.03563997665354       -1.01961428572173        8.03850811198198
C           11.12577979219694       -1.70825446105465        9.30387927499766
C           11.60444172382527       -1.05465046617520       10.43075753691374
C           11.69243992956809       -1.71769152564867       11.63453942574091
C           11.31268838473216       -3.04890179219527       11.74178434717525
C           11.38401969571246       -3.75634522782337       13.04977876195492
C           10.82536607107286       -3.69493866884773       10.61354666502534
C           10.73562707303564       -3.03532893602104        9.40809905002877
C            8.33211577107829       -0.58365932587668        9.39566819537436
C            7.06656284926743       -0.49591530100927        9.91701554756690
C            4.47137073924413        0.48653561635449       10.94474969038763
C            3.53407779135285       -0.02754220362644       11.83939743251050
C            3.37675069547788        0.52840814241814       13.08456423090814
C            4.13992036021103        1.62566418473133       13.48423132426867
C            3.95163537581352        2.17666326165013       14.82156417270692
N            3.25536920310420        1.54821591328317       15.75753712635891
C            3.28484920377087        2.33740126546324       16.85352955960328
C            2.68592172977050        2.10182436126348       18.14245717055058
C            1.96896235648704        0.93033915675184       18.39200442014760
C            1.40368370486481        0.70840960987466       19.61953520515739
C            1.54374712408964        1.65410728374385       20.62489432867226
C            2.24459726323058        2.81278787864049       20.39882928394750
C            2.83678053533254        3.07579669917619       19.15567698344520
C            3.58870988418035        4.30600779559830       18.88425421654273
C            3.75770493343029        5.30420290187261       19.85381344762198
C            4.45931559466225        6.45203815824037       19.58365971880963
C            5.02214822319018        6.65166011356066       18.33202577995699
C            4.87937545863039        5.69828509087528       17.36093886972111
C            4.17095947646520        4.51816650698641       17.61000385377147
C            4.00982261791646        3.50328579737345       16.60282571946011
N            4.44740494968479        3.40656566070043       15.29333000251235
C            5.18646594114665        4.40799216976683       14.56220431294161
C            6.56986688297885        4.46930500048281       14.65227910780268
C            7.27072254022197        5.42759681240163       13.95466840790645
C            6.60902018112280        6.35197804410538       13.15773078083794
C            7.37023288361693        7.37060208761429       12.38356600034920
C            5.22568835603792        6.28099902107506       13.06486339511246
C            4.52137181266541        5.32368993413391       13.76026744668998
C            5.07641721535042        2.13699185981894       12.58523724528187
C            5.24051315828799        1.57834443064426       11.34352864565692
C            2.29551198843375        0.04546449317458        8.98682837676202
C            1.22318704378082       -0.41238510342417        8.26138141663351
C           -0.00793515582634       -3.37900016402292        6.42412224246190
C           -1.06043493422848       -3.82722743828920        5.66480657046437
C           -3.69981106314534       -4.61993450862715        4.59100223757719
C           -4.10817350832148       -5.50863541057204        3.59759352511501
C           -4.74173700569180       -6.68145248811279        3.92451472758922
C           -5.00171913596942       -7.01216094707679        5.25447959250202
C           -5.67121561657335       -8.27226514317923        5.55635338840851
N           -5.85659663163661       -9.21408030775469        4.64287275223857
C           -6.51273069714814      -10.22224198149898        5.25752040512062
C           -6.95218764402590      -11.47548431618813        4.69919217854250
C           -6.69550966220571      -11.78988265258756        3.36354902354404
C           -7.11195328607854      -12.98365193849193        2.83714494635978
C           -7.79465291042672      -13.88936609944350        3.63609494821357
C           -8.05744623235445      -13.59812704649230        4.95175638112606
C           -7.64770510239704      -12.38672788353773        5.52612752897157
C           -7.91669101568896      -12.04693744571014        6.92780552414258
C           -8.61227592891948      -12.91268540252751        7.78315394549401
C           -8.86093116024126      -12.57885710116725        9.09064367643477
C           -8.42504629405941      -11.36471981072726        9.59957018129661
C           -7.74169557312736      -10.49457547955351        8.79448293480561
C           -7.47305745239990      -10.81028668066378        7.45854370818348
C           -6.75888804810190       -9.90788987670377        6.59476565315715
N           -6.21500559132046       -8.65142435995350        6.79789824554302
C           -6.27953521764169       -7.88129482890518        8.01694284106622
C           -5.33257118009729       -8.06023802945242        9.01533795388234
C           -5.40048850709020       -7.32604480343070       10.17833072994968
C           -6.41791057744223       -6.40245913237478       10.37669290239739
C           -6.47513081306592       -5.59019929553151       11.62300363635771
C           -7.35792319207351       -6.22171435916848        9.37124198995383
C           -7.29314619935255       -6.95365739290725        8.20672973188307
C           -4.58990106637489       -6.12061281286470        6.24569942003077
C           -3.95087803766335       -4.95096218310309        5.92148826490675
C           -4.73454871843740       -2.62469541472753        2.66387464427172
C           -5.09163456729536       -1.91923051005367        1.54179501423593
N           -5.81923986244982       -0.52202340276675       -0.82760696996487
C           -5.86306635862544        0.25914392989823       -1.92864680990053
C           -6.99071073962393        0.54582816794487       -2.77815889080275
C           -8.24321613046590       -0.01006210562151       -2.51204155778145
C           -9.31182245967296        0.26101045769063       -3.32457226994509
C           -9.15039017639650        1.09483290950195       -4.42156821551694
C           -7.92672289018318        1.65172661743197       -4.69954292626327
C           -6.80974214913948        1.39789778437923       -3.89134246772840
C           -5.49031857954098        1.97897674040076       -4.16326706790061
C           -5.26376202089192        2.83551972881407       -5.24952658380997
C           -4.02454009160309        3.37348611667436       -5.48971895648706
C           -2.95799839304974        3.07834097511043       -4.65391215434129
C           -3.14125726994614        2.24564372832154       -3.58373191523980
C           -4.39368851758029        1.68305848327243       -3.31616235199191
C           -4.60765354664769        0.80669973947632       -2.19514857489674
C           -1.94410820865705        1.69690330562391       -0.28603747893701
C           -0.60366804030154        1.98461732114658       -0.15709203155672
H            2.41413804291466        0.63995373673120       -0.75894505612132
H            2.01968731698329        2.00347693385369        0.28290506195826
H            2.11096450855085        2.22870279594704       -1.46512578449809
H            0.66504574604241       -0.43934564007037       -2.11187659613908
H           -1.73700909653205       -0.95653451693244       -2.34030750202899
H           -2.05919676401787       -0.75452091185105        0.65633115323576
H           -1.42295699281102       -2.01928602331775        2.64623331330500
H           -2.44662929864986       -0.86919091547774        4.85200607431348
H           -0.55911769439090       -0.06099065264068        6.19591569547252
H            2.69940969604922       -3.01779286636917        6.71314442172068
H            4.60741617297052       -2.20319548809760        8.02289460950362
H            5.37387384943607        0.27982698557703        7.11081512883808
H            7.65029773234580        0.12972040422470        6.17903983831827
H           10.65250892665550        1.03296379344394        3.81373937857744
H           11.99233689889329        1.56600113542284        1.81846177014936
H           14.36388014125092        0.91926669961385        1.73269676082000
H           15.39501118625194       -0.24271041312976        3.59986661911439
H           16.18323436636113       -1.19377508087695        5.12002604964506
H           17.12909264801486       -2.36692911627061        7.02441767465610
H           15.74234438175413       -2.87315377629840        8.99212495061540
H           13.39520265667254       -2.18960622365408        9.03706049244629
H           11.90183472192934       -0.02375980333514       10.34555433886108
H           12.05826738609290       -1.20423937813873       12.50750637350285
H           12.20191908119549       -3.37209392045710       13.66103798336650
H           11.54975053879308       -4.82569031805557       12.91043042158130
H           10.45637801719443       -3.62963631926607       13.60948995049514
H           10.51322847602182       -4.72256275936161       10.69040021499700
H           10.36200771481179       -3.53602550973928        8.53173542651948
H            9.15821578953233       -0.81350723583654       10.04108452992575
H            6.89570854615407       -0.66933926734973       10.96519477060838
H            2.94776200936066       -0.88009510617225       11.54440756337543
H            2.66020451302184        0.12206408894106       13.77703202605453
H            1.87096533749429        0.20695894894188       17.60124814552050
H            0.85196512361260       -0.19866341060880       19.80508776526139
H            1.09876539662577        1.47547006477361       21.59025237528511
H            2.33720119856052        3.52730608705073       21.19605292673801
H            3.33111987033104        5.17529879348261       20.83158373601342
H            4.57425732453814        7.20443650633580       20.34693407794891
H            5.57166906945795        7.55579574173236       18.12629656274295
H            5.31480791680167        5.85180454025168       16.39151099568555
H            7.08150127462679        3.75468188946331       15.27334182295696
H            8.34457111621747        5.46625993132845       14.02223798226764
H            8.29172623423223        7.64796204942202       12.89730570913295
H            6.78284443991363        8.27933364468101       12.24481541513000
H            7.63641782237816        6.98795100087343       11.39739186638352
H            4.70487363986310        6.98428402606300       12.43771037244345
H            3.44887618664227        5.26930746668614       13.69121845314660
H            5.68398706748252        2.97241928180959       12.87553677825398
H            5.96284613993156        1.98215291171451       10.65573833115824
H            2.19598075866264        0.91204248520574        9.61682693779943
H            0.27112277184994        0.08309120100319        8.33984398296317
H            0.66708935625790       -4.08510165302074        6.87565807551522
H           -1.20237027743976       -4.88092705183786        5.49926764260617
H           -3.90516805612264       -5.26703695871564        2.56895794256124
H           -5.04849945307213       -7.36880882275288        3.15537825634814
H           -6.16397824387802      -11.07610715270808        2.75840463567167
H           -6.90947624730246      -13.21981176628599        1.80524219439145
H           -8.11967642798348      -14.82853436465083        3.21878145420605
H           -8.58757011604093      -14.31870451975071        5.54708014819923
H           -8.96246085664010      -13.85914676854324        7.41410044399233
H           -9.39871788426415      -13.26244269083312        9.72734923193857
H           -8.62417761302648      -11.10823798280705       10.62735008594654
H           -7.40436374836965       -9.55400074621198        9.18750513547887
H           -4.54675567779303       -8.77946195889385        8.86238565213016
H           -4.65936171981442       -7.46388114375852       10.94706067992031
H           -6.04434865512583       -6.13165244147587       12.46634100752231
H           -7.50474669747529       -5.33970915137666       11.88230349109410
H           -5.92186847971364       -4.65781106122765       11.50306874853261
H           -8.14242775125613       -5.49750088560216        9.50988286700332
H           -8.02354244803861       -6.81781809692245        7.42822846832682
H           -4.76903861360547       -6.35931675390313        7.27637557195529
H           -3.64251564156063       -4.26671843690662        6.69259178303898
H           -5.47931859519782       -3.14541164617336        3.23989153351437
H           -6.11826761322479       -1.88879101026440        1.22059304473116
H           -8.35033831559157       -0.65562292695949       -1.65765559399418
H          -10.27567282163193       -0.17246885043508       -3.11329597386061
H           -9.99366604411389        1.30576776674879       -5.05893505617334
H           -7.83094964373463        2.29370024181799       -5.55591777774592
H           -6.07307710248929        3.08141764711853       -5.91223561283279
H           -3.87703456905203        4.02974520198206       -6.33200694359291
H           -1.98722518237373        3.50460245057216       -4.84789925472110
H           -2.31625649859692        2.01740979980537       -2.93545444895161
H           -2.68667044368764        2.29108475884488        0.21741901298190
H           -0.28645849558294        2.81585423191108        0.44914443335013
