101
 energy: -22.294512394706 gnorm: 0.000563417682 xtb: 6.5.0 (97a52f5)
C            3.38902897376668       -0.23537162829221        0.23281529440669
C            1.90234786387256       -0.18961793005448        0.16865790025070
C            1.14727343056110       -1.33703009623677        0.37103356468990
C           -0.22852176490338       -1.29137804605391        0.33274982825897
C           -0.88849617645553       -0.09261989983468        0.09586162809284
N           -2.32476261631956       -0.04389248524574        0.04968216568109
C           -3.10199492777253        0.51808325565010       -0.98054953827536
C           -2.72403719206547        1.12468242031383       -2.17778785892845
C           -3.70003913225444        1.59366943444518       -3.01631117271424
C           -5.07242764113724        1.48192867404568       -2.70004948159659
C           -6.08867098824177        2.03034673481420       -3.62307775212970
C           -5.96485891443630        1.86122858991495       -5.00331601706448
C           -6.88688949528017        2.40270859500521       -5.86511367316698
C           -7.96218404898670        3.14771307817965       -5.38589146231643
C           -8.91395119368707        3.72909780230952       -6.32767032425439
N           -9.08814761347723        3.26525414114094       -7.55231988522307
C          -10.03880438227704        4.04944344101114       -8.13485272050891
C          -10.58702136693612        4.00105922498857       -9.42455693389666
C          -11.51835308163922        4.94127997527361       -9.78208227143415
C          -11.92267014812363        5.94108727642477       -8.88600250512935
C          -11.40171657672261        6.00738956670095       -7.61959141305053
C          -10.45838424837737        5.05118250819824       -7.23768906265933
N           -9.73007375331246        4.85125108204757       -6.07000486494171
C           -9.71826254826865        5.74169461665498       -4.93735482539331
C          -10.87537456045057        5.96442031932181       -4.20230861775266
C          -10.86148889788255        6.82021320717604       -3.12323097173809
C           -9.69362543298849        7.46578570973086       -2.76658214142477
C           -8.53830536912741        7.25446970302978       -3.49320663884162
C           -8.55012669908089        6.39961648951335       -4.57269220499429
C           -8.09856363250875        3.30188075512036       -4.00673699387353
C           -7.18225903879050        2.75320268865552       -3.14284489835574
C           -5.44611566205570        0.86534337163374       -1.51174466428155
C           -4.46283038633197        0.37623128239129       -0.65611572859654
C           -4.52819844456105       -0.30926824891920        0.61587278502965
C           -5.59665242802193       -0.72033788139618        1.40813925530729
C           -5.34414594549586       -1.35249682939932        2.61987093380577
C           -6.45352055550175       -1.81775885963380        3.47978352683763
C           -6.42141196189774       -1.61056912688967        4.85998136636987
C           -7.43035544126652       -2.07781098092248        5.66609789072990
C           -8.50428683272372       -2.78483693567275        5.12955973633134
C           -9.55278437194012       -3.28757776725393        6.01228624713719
N           -9.80814074128902       -2.76453619410138        7.19823353391377
C          -10.83862722118107       -3.48307150333059        7.72721594168888
C          -11.49038050558200       -3.35682127248643        8.96235913974957
C          -12.49300993728536       -4.23848682497472        9.27316486705102
C          -12.86770199758002       -5.25576467766908        8.38388271588011
C          -12.24468630557088       -5.39892775027909        7.17106871427385
C          -11.22759380512781       -4.50259595738757        6.83620038678017
N          -10.39598946139460       -4.38287735828292        5.72803595775654
C          -10.32476320019144       -5.32213254820827        4.63776819018659
C          -11.42604734985674       -5.53977751721944        3.82006352769809
C          -11.35610083956152       -6.44323183561103        2.78279099002640
C          -10.18736844968484       -7.14186725260529        2.55079097394900
C           -9.08746920033677       -6.93562375435963        3.36014994482327
C           -9.15543114819031       -6.03314066637572        4.39798410153937
C           -8.54763382280218       -2.97691832163186        3.74903569583475
C           -7.54446008960224       -2.50142028048547        2.94008567760748
C           -4.00645667734333       -1.56030062110985        3.02372293941124
C           -2.94783188611436       -1.16837981378408        2.24827990471925
C           -3.20439735864543       -0.54450433664148        1.02794465800015
C           -0.13554340477239        1.05848645010639       -0.09574194288527
C            1.24005042763713        1.00959707263544       -0.05622655266163
H            3.76637593931627       -1.21430403053748       -0.06573547635879
H            3.73932738786644       -0.03410442918018        1.24595712365961
H            3.83417874461031        0.50678002875321       -0.43121414763654
H            1.65072752790021       -2.27006698000732        0.55838916824039
H           -0.81030044472781       -2.18550420178558        0.47367587599395
H           -1.68153832810309        1.21196405651089       -2.42606450523839
H           -3.42278767339117        2.07921323768430       -3.93591407964497
H           -5.13830262360567        1.28941940610959       -5.38829181775985
H           -6.78855514949743        2.26628489965156       -6.92815339980551
H          -10.26495256372864        3.23548247537567      -10.10741057423350
H          -11.94519463082421        4.91557720209219      -10.77118597491905
H          -12.65229953155707        6.66920888828231       -9.19998808501094
H          -11.69817295005285        6.77316119135797       -6.92540829453995
H          -11.77814905039567        5.45291971539731       -4.48736827373460
H          -11.76314049715511        6.98651336734341       -2.55677274107914
H           -9.68408951524645        8.13563690888297       -1.92234275335710
H           -7.62701224749420        7.75862788035983       -3.21597151670845
H           -7.65700161370348        6.22650662839097       -5.14743576707033
H           -8.93598822281607        3.85688868493965       -3.62375950642790
H           -7.28900282614049        2.89585111538776       -2.08140909978102
H           -6.48380600381102        0.75477120212249       -1.25726485039112
H           -6.60572165601467       -0.53820500498091        1.08803163445094
H           -5.59553530296964       -1.06920161551937        5.28810543560405
H           -7.40264864978745       -1.91179703509739        6.72911344137015
H          -11.19172362487302       -2.57785410810191        9.64068077189820
H          -13.00118093851255       -4.15144171902673       10.21939935461570
H          -13.65614538917908       -5.93617256238792        8.66048146732687
H          -12.51769412562794       -6.17910305450225        6.48336021460728
H          -12.32962340162679       -4.98652522640325        4.00796849169962
H          -12.21459713844233       -6.60533993895880        2.15178050094762
H          -10.13405231506616       -7.84907636173550        1.73929679944966
H           -8.17564374102768       -7.48121729330433        3.18021059133920
H           -8.30582531471657       -5.86362635199186        5.03624351673778
H           -9.38150460551745       -3.50406970393247        3.32142248470765
H           -7.57937100725317       -2.67437990093706        1.87833701653238
H           -3.82483444541872       -2.05672025803480        3.96124648132765
H           -1.93225355033832       -1.32821314533902        2.56306717060767
H           -0.64593380053073        1.99112037083458       -0.26158293034497
H            1.81597945714797        1.90823339820047       -0.19732061273149
