52
 energy: -11.292418867498 gnorm: 0.000499716217 xtb: 6.5.0 (97a52f5)
C            0.49928671875686        1.23136117894967       -0.91083161925945
C           -0.90592384675828        1.02338214787429       -0.46491396216884
C           -1.17171071809699        0.34793895106277        0.71702294278446
C           -2.46817549460786        0.14935982966253        1.13838974088337
C           -3.53486450546430        0.61701097677571        0.38734330648341
C           -4.91892156467085        0.38416814028019        0.86274843779145
O           -5.12773810828287        0.09722808871986        2.02448867716109
C           -6.04697844164146        0.53127403734099       -0.09896433193108
C           -6.14133462647328       -0.27937779151756       -1.21947934146831
C           -5.16748109139284       -1.38808668453556       -1.42772944920406
C           -7.17297295470800       -0.05525825149152       -2.17086067144536
C           -7.26670320088441       -0.82687931006269       -3.36760201547905
C           -8.24516587273324       -0.61067319544296       -4.27390899083580
C           -9.22907141166624        0.39867576109077       -4.06961145445112
C          -10.24941665057433        0.62365130908264       -4.99996142043502
C          -11.18570468385940        1.60093146799011       -4.78250375165227
C          -11.13643877667531        2.38079753414079       -3.63976706666906
C          -10.14542389827584        2.20243295615015       -2.68140101165412
C          -10.07339052328880        3.01444423910538       -1.46733977930657
C          -10.99040168025186        4.01966947516984       -1.18392858222508
C          -10.90030106083302        4.77497975094802       -0.02672247053400
C           -9.89559252899127        4.54857868923554        0.87740553623733
C           -8.94297558820830        3.54953425797367        0.64499536107632
C           -7.89289127492967        3.29073563500773        1.57168909490024
C           -6.97814320936799        2.32437489502300        1.33262935720814
C           -7.02502658555600        1.53452663896955        0.15273392131007
C           -8.05738484315190        1.75256780816536       -0.77441169383826
C           -9.02962118818495        2.77417604214962       -0.53526074230973
C           -8.12773835497397        0.95931486999043       -1.94851997027038
C           -9.17150051272799        1.19083147563149       -2.89933850283093
C           -3.27123423664866        1.30238125290015       -0.79201681205098
C           -1.97440168508585        1.50035310186095       -1.21141100501737
H            1.01384914714400        0.27697227030104       -1.02980872422807
H            1.05358759268151        1.82453809470079       -0.18241923674624
H            0.54106592904187        1.75369755820440       -1.86733255942941
H           -0.34952785667605       -0.02072413787262        1.30625303339555
H           -2.67661424216326       -0.36940490798130        2.05852980481537
H           -4.57123192363076       -1.56798320762362       -0.53326047785549
H           -4.48334567624146       -1.16024882265903       -2.24568586696568
H           -5.68263568204571       -2.32102989735618       -1.65757142275235
H           -6.53247587933195       -1.59000033887449       -3.55528546780971
H           -8.29352329024841       -1.20303062704262       -5.17130396850744
H          -10.29137428755190        0.01833470847703       -5.88908498592928
H          -11.96702591617001        1.76358129256216       -5.50683778863387
H          -11.88517975337826        3.13865980355360       -3.49998387386559
H          -11.79100520972848        4.22255128810775       -1.87125441876969
H          -11.62778466457183        5.54694513985129        0.16462744110596
H           -9.83013727553024        5.13669990189002        1.77654354562642
H           -7.84358037946060        3.87394109124676        2.47483478798637
H           -6.20729303263591        2.11407707134200        2.05356555738350
H           -4.09355767338233        1.67983330216273       -1.37475339199435
H           -1.78065752591238        2.03095513881204       -2.12783371763725
