25
 energy: -4.309357952289 gnorm: 0.000774417027 xtb: 6.5.0 (97a52f5)
C            2.52894283108788        1.19168658081204        0.05888352634607
C            1.27412591373044        0.39196102063327        0.00981491389454
C            1.29402326219037       -0.95565082974387       -0.31320336842218
C            0.12196883222848       -1.68388501960655       -0.36645533310325
C           -1.10569668549989       -1.10354198500216       -0.09823630409810
C           -2.38409034438027       -1.91590014245528       -0.17115390982166
C           -3.02348961196631       -1.79472239894475       -1.55492332051999
C           -2.18739098553023       -3.38617614526690        0.21686296730092
C           -1.14693090394117        0.27567511047571        0.18895815872085
O           -2.32037901866930        0.98021223160600        0.40447986789724
C            0.05314715929011        0.98913238082117        0.24836179422821
H            3.40735160875319        0.54857883564405        0.12753885397818
H            2.53512259998795        1.85452639331487        0.92530861484453
H            2.63161819133501        1.80599300359205       -0.83664213163210
H            2.23610885769339       -1.43207078383342       -0.52447980719799
H            0.16816774249592       -2.72632331940385       -0.62751767747197
H           -3.07641413230533       -1.48908657731161        0.57436996075600
H           -2.36869949250208       -2.22102885678709       -2.31539849197512
H           -3.20004724891791       -0.75296215163215       -1.82596898483003
H           -3.97637103458565       -2.32348955602757       -1.60448152615340
H           -1.58547586190687       -3.91177094607313       -0.52370084733637
H           -3.14135742643811       -3.91217744061920        0.28114212364080
H           -1.68837578520410       -3.47929728459105        1.18243480681391
H           -3.10389465986521        0.40408773113705        0.27233894827022
H            0.00823619292005        2.03800014926234        0.47697716587100
