13
 energy: -2.176313847907 gnorm: 0.000325717458 xtb: 6.5.0 (97a52f5)
C            1.12791951387500        0.00289890314893       -0.03534488640093
C            2.61354832854065        0.10656665795837        0.03663188086742
O            3.11366032287398        1.00632768592418        0.66133615536924
O            3.28181137192702       -0.87745063869246       -0.64657119664354
C            4.65764072558711       -0.92660384518788       -0.68069746668157
C            5.51865914014068        0.07576032875477        0.01524164915466
O            5.24229216048740       -1.79522192054272       -1.28377656030589
H            0.66826142528892        0.81390215755068        0.52773331387696
H            0.79284011847289       -0.94597628224208        0.38092750178331
H            0.79284047260707        0.06130789570458       -1.06986674197520
H            4.93706376896351        0.83010337162831        0.53898280009305
H            6.15873988234533        0.57754848979731       -0.70866482388106
H            6.15874276889048       -0.42713280380197        0.73837837474355
