25
 energy: -3.944322563470 gnorm: 0.000514934426 xtb: 6.5.0 (97a52f5)
C           -1.21027267929308       -1.83573836841985        0.52938684216434
C           -0.06676106671145       -0.97498216093602        0.43875886864919
C            1.21048919778366       -1.28318580583669        0.71359338792547
C            2.30133604369403       -0.43077262000493        0.62110642447318
C            2.36564015265195        0.89393488915211        0.21335208985011
C            3.71149092501248        1.60066364105955        0.25666089201776
C            4.24500960635792        1.71056773278328        1.68668207446621
C            4.72982579243269        0.94216158815668       -0.67713758374136
C            1.31627541159970        1.62856144512902       -0.23253013442742
C            0.03713971733611        1.34319705930967       -0.42082320086043
O           -7.80536123872555        2.27967648838031       -2.23270060338792
H           -1.11051638128692       -2.69200020670198       -0.14015269681357
H           -2.11872395656547       -1.29754500413311        0.25348257777137
H           -1.33873738390634       -2.21279063793187        1.54569336159501
H            1.39533867904441       -2.29195735289290        1.04820555783067
H            3.24589542021653       -0.85937530974858        0.91750715245110
H            3.53520957697062        2.62661492490318       -0.11373134917047
H            4.45184323411652        0.72457747365693        2.10234408820671
H            3.52144488746603        2.19670525549387        2.34266529230892
H            5.17330036677513        2.28249633259275        1.72493833569125
H            4.96323621921756       -0.07039684366145       -0.34878116540498
H            5.66698967378620        1.50009863383300       -0.70495910628634
H            4.34669945396842        0.87525400018662       -1.69637662442474
H           -0.40803608695663        2.11870620842068       -0.75244380666608
H           -8.30540556419123        2.88014863697651       -1.66025067458566
