18
 energy: -3.262192605071 gnorm: 0.000242824144 xtb: 6.5.0 (97a52f5)
C            2.88943285961188        0.00413822149686        0.00438048692018
C            1.39978674951024       -0.00892544563286        0.00217950566988
C            0.69091172578106       -1.20139536905358        0.00181738351937
C           -0.68957430409811       -1.20221802383809        0.00057748408806
C           -1.39988195279385       -0.01060690531450       -0.00013573496168
C           -2.88956403912159        0.00060832394766       -0.00147170462011
C           -0.69093534739148        1.18072983373265        0.00042553562827
C            0.68939697099422        1.18155781547286        0.00168402572661
H            3.29745508274554       -1.00767384481401       -0.00506303378005
H            3.27240733466606        0.50940468285938        0.89240685817547
H            3.27496317606318        0.52676162024053       -0.87242933757856
H            1.22984287785529       -2.13369068750859        0.00258067489003
H           -1.22737804531203       -2.13516134833324        0.00024521191955
H           -3.29626344429715       -1.01177847947061        0.00008206211264
H           -3.27369741562560        0.51239129180786       -0.88525412838280
H           -3.27527682612572        0.51567655389787        0.87971266906344
H           -1.23216577546797        2.11182815628984       -0.00004791572792
H            1.22951037300605        2.11330360421998        0.00233995733761
