57
 energy: -12.266415617200 gnorm: 0.000674629259 xtb: 6.5.0 (97a52f5)
C           -0.46653948153644       -3.36082867752205        0.68468371364381
C           -1.04566885977870       -1.99160453507141        0.76037917436940
C           -0.22931123961735       -0.87354858273102        0.66700010420671
C           -0.75804656880138        0.39446347707927        0.75750495043768
C           -2.12271759460973        0.58720816592896        0.93982952244835
C           -2.64490735966355        1.96333268513519        1.05353998833887
C           -3.86003604968658        2.34566888099710        0.48568364318948
C           -4.65955055830801        1.40441082323406       -0.33335281451548
C           -5.96365436402479        1.06203211941489        0.03046896565711
C           -6.69733555194771        0.17848865340744       -0.72680602915560
C           -6.16314786656173       -0.39058725359909       -1.87445435048564
C           -6.95198509325030       -1.36791214483034       -2.67350943251876
C           -4.86435013121885       -0.06037444384353       -2.23690743964710
C           -4.12520084911734        0.82305532063680       -1.48493531002509
C           -4.31066424644620        3.70075497520652        0.66793981294135
C           -5.49970867767517        4.18033328563281        0.11306338767717
C           -5.89876278823897        5.48672380931957        0.30559148181929
C           -5.12381123107467        6.34809955394165        1.04860561438696
C           -3.92155943048340        5.92249243960327        1.61065242658034
C           -3.51125912290632        4.58822744465044        1.41255504704981
C           -2.27350912506250        4.13037621495463        1.95315645492782
C           -1.49766849987191        5.00327455281184        2.68184288368358
C           -1.86863406686473        6.34502840530106        2.92116943193701
N           -1.05109796154237        7.10913085007554        3.64430064859085
C           -1.46923910147573        8.36786454743170        3.82275496922066
C           -0.67034763452438        9.25681296907751        4.57702495939320
C           -1.05369217791635       10.54640120555128        4.78844878212492
C           -2.25620675553023       11.01874179802557        4.25595297937840
C           -3.05320306565751       10.19181227662356        3.52206631556133
C           -2.69272443680026        8.84907883505955        3.28143315594531
N           -3.51266001732981        8.07301633657195        2.55238988407100
C           -3.09758103426050        6.83051257271909        2.38011643591109
O           -1.84255180069936        2.83095459407215        1.75600270891088
C           -2.93549772219481       -0.53728879779074        1.06404110376541
C           -2.40432509787310       -1.80373760113113        0.97173029886778
H           -1.21398941493283       -4.08947867108738        0.36867587164361
H           -0.08311267577165       -3.67290444324313        1.65683668677963
H            0.35645831519042       -3.39983903477027       -0.03010640394634
H            0.82961677875938       -1.00804810771260        0.52688255168535
H           -0.12092886523176        1.25997860769107        0.69647479634154
H           -6.38298538987899        1.48870586901592        0.92537627585251
H           -7.69815903134147       -0.08423634074603       -0.42969896739487
H           -8.00888259358312       -1.09882288395275       -2.68999178900746
H           -6.86662091412075       -2.37052138227482       -2.25286561880271
H           -6.60459924666687       -1.40625856447320       -3.70665859137082
H           -4.43596082990438       -0.50671846313470       -3.11778865294580
H           -3.11945828291704        1.07457441106067       -1.77437312403288
H           -6.10575499813006        3.51998726983773       -0.48089991545860
H           -6.82115902030121        5.83545477797894       -0.12897906129311
H           -5.43084874873314        7.36780919291495        1.20209258541591
H           -0.56965677514843        4.64853929886385        3.08765402068879
H            0.25408424822859        8.88536036363438        4.98323880198878
H           -0.42959697842099       11.20699041249676        5.36757218056297
H           -2.55127181363680       12.04109295710083        4.42600913667353
H           -3.97958067527158       10.54900529843867        3.10750190089748
H           -3.98845719388584       -0.40619411414600        1.23965398438727
H           -3.04402033174547       -2.66435120946433        1.06620986254227
