45
 energy: -9.145696495950 gnorm: 0.000637443530 xtb: 6.5.0 (97a52f5)
C            1.65436579591584       -0.60700234451000        0.61334080581749
C            0.19633769510106       -0.39739661083984        0.40422277208877
C           -0.73056947998065       -0.92633844129314        1.29272037070785
C           -2.07765110286127       -0.70692860667259        1.11730230025825
C           -2.53565313138073        0.05323258205446        0.04894106610280
C           -3.96892680625417        0.29245918411576       -0.12020377910186
N           -4.35833937106607        1.00910564173715       -1.13337747366150
C           -5.71565373692802        1.14227340829685       -1.28182941665010
C           -6.20872422424144        1.67491126130161       -2.46842022459254
C           -7.56382202852930        1.80619002476656       -2.66005639795591
C           -8.43703007776172        1.40570946145384       -1.67647858687131
C           -7.95636877739451        0.87249394447472       -0.48502692090305
N           -6.61118453589445        0.77376588164136       -0.33008768822191
B           -6.07838753814698        0.36535661645095        1.01797037854131
F           -5.92632915454438        1.51314453153842        1.78525427074937
O           -4.78411603850078       -0.27397523302211        0.81076595095301
O           -7.05368465726529       -0.52575445437553        1.63498083217941
C           -8.36743555381255       -0.22198226805577        1.45286747727270
C           -9.29137204448678       -0.73938264911252        2.46243174407761
C          -10.65670660644767       -0.49266867965724        2.38066181679387
C          -11.51353544088049       -0.97782414042340        3.34181498528074
C          -11.03297543262668       -1.72409565312615        4.41008168046481
C          -11.95062252606916       -2.24154925861270        5.46097833525917
C           -9.66869021407737       -1.96607837073473        4.49191350877349
C           -8.80935505757657       -1.48184872616171        3.53251662823282
N           -8.85783511454782        0.47014919784857        0.46718678787879
C           -1.60880320551959        0.59038895250442       -0.83692220120596
C           -0.26252891226123        0.36961839605376       -0.65847246160835
H            1.84794605975699       -1.55719142112145        1.11217810438004
H            2.07450989155206        0.18868755066023        1.22939900929683
H            2.19061229599870       -0.61691998193014       -0.33618788107356
H           -0.38422732255144       -1.51022575045589        2.12818740225932
H           -2.79980381131939       -1.11202598872133        1.80576058493310
H           -5.51025310965551        1.97827134522958       -3.22840324073092
H           -7.94094322010131        2.21900226816054       -3.58106293051640
H           -9.50071921894895        1.49467685258336       -1.81096040985491
H          -11.02825695394992        0.08724020342321        1.55387756187128
H          -12.56896479062643       -0.77849666676269        3.27180298431797
H          -12.99501192283564       -2.07673266441447        5.19407760425827
H          -11.76661526031137       -1.74454591187857        6.41408399950346
H          -11.80984873471509       -3.31315852464180        5.60634534307980
H           -9.28662055420690       -2.53777121927573        5.32012839653256
H           -7.74986746404348       -1.66337119743296        3.59483326458701
H           -1.96471392904393        1.18592882036058       -1.65954850837665
H            0.44940532304607        0.79604863857695       -1.34428784513124
