57
 energy: -11.841229877988 gnorm: 0.000290930922 xtb: 6.5.0 (97a52f5)
C            0.85921691294707       -2.41734902165805       -1.42118311094609
C           -0.45747229451868       -1.84658542481310       -1.02468059468351
C           -1.22077288812319       -2.44811122607851       -0.03401028117298
C           -2.42735118470112       -1.90880261418985        0.35511362258654
C           -2.90687619484699       -0.74436676382059       -0.23685599896582
C           -4.18392890670567       -0.14008309817393        0.16885610479755
N           -4.35625110977671        1.17411624628354       -0.06993810836422
C           -5.60597585810488        1.68369375248553        0.08710289351649
C           -5.87662799096346        2.97808683145725       -0.36323934775843
C           -7.14779244278384        3.49504622175149       -0.26995014090479
C           -8.16775648862566        2.73408065667125        0.25206295032083
C           -7.91894642129176        1.43832451398500        0.71095821802383
N           -6.63380672067246        0.98295851391846        0.64895434522767
B           -6.28853727594148       -0.26412327751853        1.41194670621912
C           -5.89161075068658        0.10527282287106        2.92127290256334
C           -6.04677587635526        1.38565339380842        3.39651046162727
C           -5.71649049122227        1.68431297186201        4.70184826138207
C           -5.23035537110124        0.69246450638376        5.52997766430406
C           -5.07661224304504       -0.59331312532197        5.05079635116082
C           -5.40941387936659       -0.88509396109328        3.74368253560682
N           -5.10549946018926       -0.90557605778580        0.73557984068980
N           -7.50760659657975       -1.14780249203354        1.43632758796886
C           -8.71652116842132       -0.60505021703984        1.44940102972772
C           -9.87443876002786       -1.45544007695485        1.76067457916287
C          -11.14455627306104       -1.07971842056133        1.33824410562552
C          -12.24485988628260       -1.85341162917301        1.63412152626792
C          -12.11102873782670       -3.02769329477603        2.36113656914411
C          -13.30379026720620       -3.84817627792188        2.70850158266779
C          -10.84657832410601       -3.39567338613520        2.79875825918946
C           -9.74361808258777       -2.62472452108531        2.50362928275363
N           -8.95074931024349        0.69448353559451        1.18706095765930
C           -2.13205619997585       -0.13393161792361       -1.21660916131674
C           -0.92678418507966       -0.67626318925113       -1.60380915085967
H            0.86070943639954       -3.50422472553971       -1.32863545570633
H            1.65714988104873       -2.02439737872253       -0.78972852884783
H            1.09871886351843       -2.17335403845220       -2.45704875793783
H           -0.85491796654513       -3.34500545611101        0.43610259693924
H           -2.99333390243306       -2.37439131392724        1.14230119232532
H           -5.07562196322559        3.55305249736407       -0.79323731991485
H           -7.34862691167485        4.49363418441752       -0.62195274901779
H           -9.17094502377971        3.11803641235769        0.30927587971301
H           -6.42798006263422        2.14402739981733        2.73659184388386
H           -5.83873392595705        2.68860975671440        5.07315254053247
H           -4.97138939852690        0.92161241544052        6.55072836219954
H           -4.69780989263228       -1.36893086624970        5.69612629035060
H           -5.29689329678332       -1.88280666902441        3.35646948693534
H           -5.00316880422262       -1.90782040117284        0.82159241889218
H           -7.35588113308073       -2.14080549218215        1.55171725530353
H          -11.25213184444774       -0.16675547219316        0.77864601567929
H          -13.22345213366138       -1.54813246037031        1.30508067987189
H          -14.08279204596583       -3.75113667697767        1.95119419181403
H          -13.72354836817895       -3.53482714133929        3.66524870718649
H          -13.04569354268606       -4.90530160057260        2.78403212194363
H          -10.73567139423498       -4.29373077309352        3.38223931188196
H           -8.77522575599189       -2.91101298032294        2.87383833467967
H           -2.49177769313744        0.77586317497440       -1.66502891633946
H           -0.33526839368873       -0.19132666856002       -2.36147794565963
