64
 energy: -13.096336199044 gnorm: 0.000228621325 xtb: 6.5.0 (97a52f5)
C            2.42324932846317       -0.72422591153840       -1.61687297743263
C            0.99002526932629       -0.52041815967835       -1.27115338470327
C            0.20136462578151       -1.58259129738110       -0.85382223237712
C           -1.11506107987961       -1.38804511448105       -0.50307850107349
C           -1.69231098928616       -0.12225993480862       -0.54599377731497
N           -3.05294326755955        0.06991924265758       -0.13843814656100
C           -3.78006946447444       -1.05497428981670        0.40005777436914
C           -3.42259711228553       -1.62382541221472        1.61783287895646
C           -4.12121994288893       -2.69815899664105        2.11881887033739
C           -5.19407673390170       -3.23750157566796        1.42146180390638
C           -5.96734566477565       -4.37966879101645        1.98020429913400
C           -5.56125004180196       -2.65711453454588        0.21496898794189
C           -4.86492552815349       -1.58424276727305       -0.29070390945124
C           -3.74058336032423        1.27422519624478       -0.19844475126113
C           -5.04235609209191        1.64501916500775        0.31005241738600
O           -5.93144679053244        1.05024852240456        0.92006506028266
C           -4.86303436414563        2.99328066473724       -0.17954972172139
N           -5.61857817678490        4.15530786616784       -0.15542624210149
C           -6.83576297063075        4.22106443583364        0.60379676865271
C           -6.95209920575665        3.57571628611296        1.82979291718678
C           -8.10646365159142        3.67203004162124        2.57174460938365
C           -9.18159718328335        4.42354455358956        2.11902982721033
C          -10.43593343931459        4.50851599160991        2.91543727276669
C           -9.07451691150036        5.05610792428855        0.88802813357080
C           -7.92166523777176        4.95820430552533        0.14290887973584
C           -5.19356190550628        5.31561588139362       -0.88734725504458
C           -4.60331412498216        5.19529822773729       -2.14038054575981
C           -4.23431091428134        6.31026373253199       -2.85669118885128
C           -4.44929075529657        7.58401006561787       -2.34952634085546
C           -4.03126890556565        8.78729075497217       -3.11912099385877
C           -5.02232424267809        7.70684491431110       -1.09113082546527
C           -5.38976004970816        6.59261892400485       -0.37189874188176
C           -3.55997258805837        2.62736366499856       -0.68983008432218
O           -2.67638969323397        3.23696540094350       -1.29390983878824
C           -0.89769970922335        0.93496895396560       -0.97200172385119
C            0.41869075116458        0.74253338620828       -1.32153093064685
H            2.58886544719791       -1.71596255585592       -2.03944519222639
H            3.05234382360093       -0.62598242544025       -0.73136555770755
H            2.75921630180180        0.00870664738201       -2.35134714210310
H            0.63324716315478       -2.56749889616749       -0.80313074563490
H           -1.71313362724748       -2.22450934220911       -0.18900076045610
H           -2.59828237831356       -1.20075416523797        2.16488838304662
H           -3.84317249667830       -3.12731103946675        3.06615119671815
H           -5.32878858805058       -5.03418629876615        2.57466750456305
H           -6.40984969004113       -4.98168238641893        1.18557770637829
H           -6.77437166191492       -4.02260317711752        2.62095049208191
H           -6.40742627486316       -3.05105088467645       -0.32144620084524
H           -5.15927590702445       -1.12540711331265       -1.21843867062478
H           -6.12963400540806        2.97708278029387        2.18059791097828
H           -8.18609556275997        3.15542286826700        3.51291500874683
H          -10.22278444071583        4.49974285451138        3.98510910333546
H          -11.09129988499395        3.66500158940601        2.69565539035828
H          -10.98217875605763        5.42636272791236        2.69472312328597
H           -9.90879531302114        5.62675269353571        0.51748709059700
H           -7.84881495620768        5.44742790478709       -0.81256535252059
H           -4.41709623187388        4.21067674636471       -2.53250856549019
H           -3.76703900307262        6.20073478993315       -3.82036217990003
H           -4.14172831157473        8.62483077182319       -4.19201827787192
H           -2.98656846372615        9.02940793587491       -2.92090260801502
H           -4.63511020254905        9.65552449681000       -2.85245828553592
H           -5.17607642812939        8.68931351484381       -0.67872399236484
H           -5.82890243062827        6.69610353204309        0.60485866306451
H           -1.33313850793541        1.91308848603162       -1.04710331889945
H            1.01830049940832        1.57777663349256       -1.64092310341982
