94
 energy: -18.883170414714 gnorm: 0.000664393840 xtb: 6.5.0 (97a52f5)
C            0.22157944348346        0.89861191525471        2.13949348525333
C           -1.24039317030766        0.92944114956457        1.85869892582749
C           -1.82531249554065       -0.00128223159890        1.00970057031730
C           -3.17700287822122        0.03279015376038        0.75066867250308
C           -3.98741782160266        1.00158770925926        1.33534208982166
N           -5.36620200229229        1.14230005104219        0.93787630908967
C           -6.13286480650439       -0.05695603839246        0.73794271412357
C           -6.14252526476965       -1.05437654870931        1.70713034253321
C           -6.86450719585995       -2.21093340080402        1.51576264167968
C           -7.59846630390893       -2.40771405754817        0.35319016914551
C           -8.36101572343795       -3.66862583255223        0.13811078613294
C           -7.57176159086227       -1.42078828748320       -0.62341001727515
C           -6.85028183330454       -0.26363214880848       -0.43630311373641
C           -5.76871377870565        2.39237557030229        0.38059896941844
C           -4.78467386216150        3.20949131360077       -0.14987922196049
C           -5.03593976616323        4.40510659533215       -0.80154322232610
N           -3.91567177958457        5.18160556315176       -1.22052929538907
C           -3.90947836197168        6.61620069429182       -1.12437989595778
C           -4.55470195467157        7.26832534006032       -0.07816656247308
C           -4.53981314852363        8.64205311533131        0.00711932766027
C           -3.88013146145753        9.40623296684353       -0.94652775824592
C           -3.84562428017714       10.89120262189568       -0.83959176655659
C           -3.21740594804823        8.75395768572481       -1.97817822887549
C           -3.23053490739293        7.38026794207360       -2.06733894283510
C           -2.64661305632604        4.51103051503446       -1.35697728679258
C           -2.52655834503771        3.37475052801776       -2.15173359994381
C           -1.35801325624964        2.64723271213800       -2.16357385041591
C           -0.27419843257012        3.02957997676281       -1.38443746499002
C            0.98740923779247        2.23900371958856       -1.40347727438398
C           -0.38361026915984        4.17892775434522       -0.61245371531344
C           -1.55064817471220        4.90895750845832       -0.59719101382374
C           -6.38790439866583        4.80315069144820       -0.98642865648648
C           -6.74874912142522        5.94232117695672       -1.75184450430746
C           -8.04121181508126        6.32927730564146       -1.89085920321545
C           -9.09504214376342        5.59962569530223       -1.27195288397343
C          -10.43392113407091        5.99021733175218       -1.37927943374284
C          -11.45808436135894        5.27368956049764       -0.77491971735395
C          -12.93083422054678        5.70004400202144       -0.88465084015069
C          -13.73914500659148        4.57259548133694       -1.55338156585711
C          -13.48796991954335        5.97224350587099        0.52493678845310
C          -13.09584668582981        6.98014246396042       -1.72699130878305
C          -11.13064597710052        4.13738367096902       -0.04893940825358
C           -9.80954976111170        3.69922779116214        0.08808258717796
C           -9.46900435586445        2.53561582493751        0.83397332425795
C           -8.18047588636111        2.12437946608540        0.93634683470114
C           -7.11999177784867        2.82719922838220        0.30780937077562
C           -7.41821370689386        4.02040416682328       -0.40173417967717
C           -8.77430484567273        4.43956142228130       -0.52876088034741
C           -3.40492656277270        1.91631273896512        2.20784095830121
C           -2.05287738079103        1.87908770033886        2.46354067290594
H            0.42181258513071        0.43322183003787        3.10573189382848
H            0.63629143412817        1.90780327803389        2.15853847300149
H            0.75983125039985        0.33398984052795        1.37658699541480
H           -1.20587819594652       -0.74847412234708        0.54308885443453
H           -3.61995912233953       -0.66991782537659        0.06655303753042
H           -5.57769048062364       -0.90383205855576        2.61064789272470
H           -6.86404253307721       -2.97818080382647        2.27126118477854
H           -8.69326576608098       -4.09503567106616        1.08583482116962
H           -7.74425909168262       -4.41261340791473       -0.36820191788978
H           -9.24715840365506       -3.49324147054931       -0.47381067171192
H           -8.12413317871470       -1.57059534616260       -1.53551813575609
H           -6.83036921646063        0.49688933778602       -1.19731093733390
H           -3.76384795976184        2.89561142145059       -0.05230270715344
H           -5.06672797734040        6.67992077346126        0.66315289668195
H           -5.04257733457096        9.13732104304992        0.82034907445862
H           -4.74833617393325       11.27302289843206       -0.36034500586689
H           -3.77292003355551       11.35536493265809       -1.82429447317220
H           -2.98759607625637       11.21710047012201       -0.24985252418417
H           -2.68899665126263        9.33704566776312       -2.71320342240619
H           -2.72035169014038        6.87789524023593       -2.87070126484169
H           -3.37275258616296        3.06136944897499       -2.73850618084348
H           -1.27830629173786        1.76381259155476       -2.77418056465180
H            0.77864048491467        1.16985946604343       -1.46691142923772
H            1.57342959117502        2.40805543153258       -0.49881391071469
H            1.60473406479426        2.51395855542778       -2.26003196222029
H            0.45481059925829        4.48982803306362       -0.01252807363465
H           -1.64206249618761        5.78024624080669        0.02770371719315
H           -5.96983255918097        6.50298836152943       -2.23558310792073
H           -8.28739302601692        7.20124676993370       -2.47188293117832
H          -10.65646122123091        6.87350693026568       -1.94826489341514
H          -13.69926577085926        3.65481736612790       -0.96795516262246
H          -13.34603631167810        4.35362579316632       -2.54602705313742
H          -14.78663926954532        4.85419246056312       -1.65987967319070
H          -13.44796110055775        5.07824247890435        1.14625201762957
H          -14.52672438558227        6.29853880902180        0.47748298375437
H          -12.91157461049657        6.75191937203033        1.02273765068204
H          -12.73123557836352        6.83123363847607       -2.74318096703433
H          -12.55405620750737        7.81495895705757       -1.28260835398302
H          -14.14526235440078        7.26731879578146       -1.79285816691149
H          -11.90930541140310        3.56901492701015        0.42625334363006
H          -10.25582915025364        1.98149795544167        1.31609670384355
H           -7.94439982747137        1.24761329072589        1.51158642156342
H           -4.02703049574749        2.67016881291734        2.65874952063494
H           -1.60972922046258        2.59841570532174        3.13116528142985
