12
 energy: -1.508129150452 gnorm: 0.000611090629 xtb: 6.5.0 (97a52f5)
Br          -0.61556700852112        0.32690367888003       -1.18105274301292
C            0.13455220949336        1.80507249979292       -0.27868910689976
C            1.47653453543228        1.83016999587537        0.03507064560971
C            2.34252020960774        0.78384213532766        0.00903089992429
C            2.21546190648584       -0.53467430913054        0.08661641514534
C            1.29456200944862       -1.27586229013941        0.67658059772648
C            0.34823672479849       -1.07386558085349        1.65132772542483
H           -0.47567688503638        2.65452991267964       -0.15833707597914
H            1.89669657295182        2.79992613505753        0.25734382637396
H            7.81470314278527        1.29720357666001       -0.46610366671492
H            4.76681230189409       -6.37015491674164       -0.90905923211062
H           -1.60627571958017       -2.26885083747729        0.26681171461503
