95
 energy: -19.869354781571 gnorm: 0.000243833176 xtb: 6.5.0 (97a52f5)
C            2.45022753193944       -0.19423547865205       -1.40022710938249
C            0.99533791905042       -0.18831479788373       -1.08405138177649
C            0.16184099325743       -1.19394393971981       -1.55529004757946
C           -1.18715101837161       -1.17806549339027       -1.28159638974633
C           -1.74802737151938       -0.14910713460759       -0.53142182996239
N           -3.15209717413979       -0.13657653349319       -0.23362559912781
C           -3.83818687679300       -1.37315137473341        0.01648466821375
C           -3.22947561821001       -2.39587369835236        0.73719040512107
C           -3.88975256651331       -3.58157395352549        0.96780979980631
C           -5.17856942948062       -3.78289148953610        0.49156680100703
C           -5.88018377480432       -5.07668557458036        0.71603159910659
C           -5.78304708285212       -2.76634346712457       -0.23574376715090
C           -5.12656847841519       -1.57907361091875       -0.46739523768745
C           -3.86946516467362        1.09870000045261       -0.18694012956592
C           -4.91010764681564        1.28542412750450        0.72468669027203
C           -5.59669201476689        2.46948582805138        0.77694370005406
C           -5.27596432250932        3.53242713756514       -0.08312457529058
C           -6.00909144071224        4.80183731993995       -0.05338686007014
C           -6.39106585577548        5.45751369233191        1.15388920749888
C           -5.95857292137381        4.97210004596829        2.40997745533013
C           -6.36378707523425        5.54446471738729        3.57872485667871
C           -7.22785578146172        6.63981608941891        3.56074320245036
C           -7.63166171728930        7.17449156180504        2.37378253228080
C           -7.19781796876901        6.64904841798534        1.13440909789220
C           -7.57920283466376        7.26488553325970       -0.09369841840764
C           -8.32260334110966        8.52684053093704       -0.16574584722352
C           -8.01017021572040        9.62220457427888        0.65599642107021
C           -8.70743464462483       10.79770121195233        0.56341612939392
C           -9.75120421580898       10.94259703400185       -0.35229610249252
N          -10.48588170537850       12.16578398378528       -0.43939363183356
C           -9.81852838285263       13.42276344828278       -0.25072765413170
C           -8.52405227850981       13.61708587720250       -0.72304520163922
C           -7.88787457950311       14.82591419847347       -0.55435194738113
C           -8.52426223098617       15.88131829275183        0.08505104189200
C           -7.82586751563074       17.18085231246369        0.28534772769370
C           -9.81176323616057       15.68519126363367        0.56675600488494
C          -10.45117828943049       14.47759275603257        0.39978499478954
C          -11.89331438523740       12.14015849341349       -0.72148016014344
C          -12.70449522252087       11.13962892157430       -0.19475058287787
C          -14.05533027221922       11.11800993429525       -0.45776394310036
C          -14.64142893978859       12.09668941232663       -1.24920572659201
C          -16.09845845196154       12.05721555218357       -1.55272672946084
C          -13.83147208368522       13.08981024461779       -1.78381320068541
C          -12.48006533595673       13.11470965698746       -1.52276457490196
C          -10.05291944952053        9.86683826632569       -1.18917843082208
C           -9.34830914775393        8.69536857842601       -1.10805241776534
C           -7.19111044487065        6.62225262504096       -1.31183007778074
N           -7.46327541581879        7.03384640303091       -2.53501359449082
S           -6.78616461474354        5.98092557291503       -3.59965276948204
N           -6.11371076264787        4.96016087273630       -2.50130017372723
C           -6.38953588322871        5.40883862744838       -1.29204987291074
C           -4.25363693782123        3.32142190809725       -1.02062963131953
C           -3.55965402615850        2.14135424367897       -1.06186540195076
C           -0.91331491932862        0.86353607611489       -0.06855317281635
C            0.43518764328517        0.84422435696844       -0.34391955512230
H            2.82195486926820       -1.21199671450472       -1.52639499391408
H            3.02832831946727        0.27189120567030       -0.60115511102268
H            2.64827694208005        0.35334069873409       -2.32255558023404
H            0.58341763889689       -1.99190705144047       -2.14244437636186
H           -1.82795764137822       -1.95831632445766       -1.65333562547379
H           -2.23482237061052       -2.24190302513262        1.11747975526626
H           -3.40735984386027       -4.36811251805619        1.52266555935066
H           -5.55514669539732       -5.54510510775043        1.64598270424854
H           -5.67932149590768       -5.77246384296750       -0.09967036526715
H           -6.95980051548171       -4.93324424364606        0.77784891741002
H           -6.77633325448460       -2.91768203819637       -0.62269267595212
H           -5.59734509338320       -0.79763949633276       -1.03795796683485
H           -5.16148290499131        0.48118048269436        1.39374213977770
H           -6.42365949083635        2.57983780533262        1.45700826422047
H           -5.27055528044330        4.14655436534454        2.44148921312269
H           -6.02342631746181        5.14756261940000        4.52127673855174
H           -7.56894245962834        7.06674085815459        4.48981202384704
H           -8.31940350600915        8.00081947536503        2.37825898936976
H           -7.18174327399420        9.54264238031250        1.33856946918228
H           -8.46299341082483       11.62670286463597        1.20422742354614
H           -8.03089350694196       12.80829584161885       -1.23333968818988
H           -6.88509152667607       14.96341732105102       -0.92146799304901
H           -7.12328522034233       17.37895255321216       -0.52528844772248
H           -7.26734193398701       17.18008398458883        1.22226006240315
H           -8.53557457010777       18.00865239095962        0.31691591186280
H          -10.30892634358868       16.49252335440607        1.07691863725325
H          -11.44741070904302       14.33107600595464        0.77885196084061
H          -12.25906888206578       10.38603860823544        0.43087635443707
H          -14.67194012900431       10.33619339705222       -0.04811552409018
H          -16.65864997580605       11.60079114456862       -0.73550318142235
H          -16.29000331777694       11.47782024210425       -2.45681373133962
H          -16.49618528605773       13.06140065533114       -1.70552111544190
H          -14.27352846504903       13.84514240291300       -2.41093440535662
H          -11.85737249447299       13.88411627138050       -1.94453459422554
H          -10.83772379711069        9.98095645958408       -1.91625674672399
H           -9.57422732628375        7.88035931133075       -1.77347174851751
H           -4.02171204292088        4.11035483002581       -1.71475043586796
H           -2.77806804205062        1.99471335827763       -1.78654816421227
H           -1.33795068580321        1.65886152088143        0.51865372319352
H            1.07050701670835        1.63526479818447        0.01648403431130
