89
 energy: -18.495775986849 gnorm: 0.000388147155 xtb: 6.5.0 (97a52f5)
C            2.32260587156170        0.04006572314232       -1.01596750612966
C            0.85722505031156        0.00036011081448       -0.75581189376064
C            0.09229816038930       -1.08650280758276       -1.15829506755063
C           -1.26578600956916       -1.11538416978965       -0.93424030587217
C           -1.90389218183551       -0.05259803646539       -0.30253646813648
N           -3.31624095729344       -0.07764843493923       -0.05141876259219
C           -3.98161544134820       -1.31016999096346        0.25970996032166
C           -3.35008259401514       -2.30194750249584        1.00350372173937
C           -3.99256318711661       -3.48722716020598        1.28241301931372
C           -5.28693291014073       -3.71777996730100        0.83547811904968
C           -5.96767531907306       -5.01333659095871        1.10887896435015
C           -5.91688233419232       -2.72965636865888        0.09090774606507
C           -5.27794843999158       -1.54314493185515       -0.18896024876569
C           -4.07169183258430        1.13956670799157       -0.12030051649496
C           -5.01038948851425        1.45298447667408        0.86211044624021
C           -5.72227222104846        2.62463899588584        0.80626207861115
C           -5.54275652869216        3.52774735755827       -0.24818454517967
C           -6.28365827704647        4.79118006765459       -0.30944262783121
C           -6.72453898822382        5.43322374233873        0.83198719819079
C           -7.41710165048017        6.64817400958488        0.79858568955024
C           -7.73238764017758        7.29818587162906       -0.37935828539163
C           -8.46569760843510        8.56751914998151       -0.38890713011920
C           -8.38583043307951        9.46554672952558        0.68198621287507
C           -9.08494714136813       10.64602272755385        0.66787968689230
C           -9.91181753291006       10.97415838051269       -0.40595138528022
N          -10.64662833498431       12.20621974520242       -0.41562365058635
C           -9.98618793161642       13.42776513952275       -0.05463492930757
C           -8.64570019685030       13.62335316470916       -0.37244338431485
C           -8.00940437989295       14.79946406020534       -0.04661269865797
C           -8.69050572596654       15.81943989078136        0.60386549510748
C           -7.99436524637372       17.08354595561448        0.96997641222014
C          -10.02330281893441       15.61852645982231        0.93804484273777
C          -10.66294685393524       14.44334975509369        0.61349430437366
C          -12.02826324930667       12.20729474760671       -0.80171392742614
C          -12.84634633143973       11.12453125882194       -0.49436644962100
C          -14.17690516556769       11.12532102025992       -0.84668172912015
C          -14.73488790045136       12.20719293891218       -1.51423921501395
C          -16.17007299533507       12.19673121947279       -1.91016767450977
C          -13.91548684828371       13.28056335534788       -1.83782458547698
C          -12.58428901740036       13.28315130431851       -1.48670491994780
C           -9.99656526414319       10.08490954318176       -1.47632316037050
C           -9.27636639856449        8.91805230335171       -1.47291529178131
C           -7.31670821382021        6.67159753271345       -1.61010822747688
N           -7.51834754865409        7.10970454569515       -2.83380754845592
S           -6.82649379156905        6.05081294510108       -3.88280826701598
N           -6.24968062226849        4.98580115038284       -2.77232614774030
C           -6.57218796017965        5.42183789080533       -1.57403654145768
C           -4.62067369006038        3.19047984175855       -1.24374455486558
C           -3.88918312601659        2.03277357414480       -1.17500047668385
C           -1.13885112031254        1.04318372482408        0.08482431356227
C            0.21880163430475        1.06834449443959       -0.13998322784033
H            2.74512951148725       -0.96514262070435       -1.04635081929351
H            2.84537047871933        0.59457799323281       -0.23540674341490
H            2.53349404947083        0.52316475408038       -1.97087631991418
H            0.57471902034929       -1.91253121702840       -1.65239787951181
H           -1.85299165287372       -1.95775192541701       -1.25542556910914
H           -2.35165521345905       -2.12567266145885        1.36355349974645
H           -3.49132694177833       -4.25099989594629        1.85217658860939
H           -5.63133695054578       -5.44360535267648        2.05311370135707
H           -5.75963660853005       -5.73432014312931        0.31719016645621
H           -7.04911765600630       -4.88449899189115        1.17072987809621
H           -6.91555377395412       -2.90294516191054       -0.27224067288111
H           -5.76902744444924       -0.78408474176746       -0.77235869301774
H           -5.15703090942807        0.76272002602701        1.67441992572724
H           -6.44855352052630        2.84351416328777        1.56920180571352
H           -6.50131871686213        4.99366802029522        1.78815590162222
H           -7.73963356766839        7.08316416404163        1.72814979232422
H           -7.74458323971702        9.23611592821689        1.51483989096653
H           -9.01372240098179       11.33319975193177        1.49283549545617
H           -8.11577186917352       12.84216187032245       -0.88875895265471
H           -6.97175480162692       14.93878214122084       -0.29788988995663
H           -7.22593811912035       17.33513816501457        0.23766473682324
H           -7.51362110743606       16.99287332922103        1.94483972378949
H           -8.69342157904812       17.91970279554790        1.01537608069922
H          -10.55614582351348       16.39652381332852        1.45765792358493
H          -11.69390531195552       14.29245114091867        0.88169495979236
H          -12.42326389390963       10.28816704751087        0.03395554214190
H          -14.79967455993610       10.28127342077096       -0.60375026315918
H          -16.77371254449776       11.64901407169622       -1.18513863802703
H          -16.29995705701067       11.72205853112885       -2.88356801109481
H          -16.56900695966814       13.21001793147244       -1.97354341310712
H          -14.33397205489660       14.11723836449373       -2.37078422542804
H          -11.95422867364796       14.11525400332385       -1.74777347942277
H          -10.61947920963899       10.34185623439938       -2.31516458899818
H           -9.32285186120267        8.25438865559255       -2.31730907695818
H           -4.49500289530549        3.85786993241576       -2.07705612200406
H           -3.17925937788404        1.78678778267135       -1.94520152277511
H           -1.62560894003583        1.86900244695421        0.57342735164421
H            0.80004090869423        1.92225058104895        0.16378505572272
