88
 energy: -18.481098239900 gnorm: 0.000433109231 xtb: 6.5.0 (97a52f5)
C            2.46918894675230       -0.24110903996617       -0.64560174313545
C            0.99872923619274       -0.20287968206271       -0.41475106809764
C            0.16949335085275       -1.17351098694439       -0.96101871587724
C           -1.19294942320003       -1.12658567050092       -0.76939866380401
C           -1.77086288234932       -0.10171999607302       -0.02686003598068
N           -3.19194860851816       -0.03976442908977        0.17454582029599
C           -3.94614000118072       -1.26141770929519        0.23967088878349
C           -3.45831225188762       -2.36637506526086        0.93005868567660
C           -4.18997453323448       -3.53039713679709        0.99767398844911
C           -5.43281016335930       -3.62616189408988        0.38551525823070
C           -6.21006922420617       -4.89521448923286        0.43540607729799
C           -5.91702181298410       -2.52546680023075       -0.30893429942409
C           -5.18844643979828       -1.35976340538238       -0.37866994485925
C           -3.85073312411281        1.23023539595234        0.16078659267885
C           -3.48953108179040        2.17741238795856       -0.78281761990693
C           -4.11986141379062        3.40063366081603       -0.85659231239901
C           -5.14523188903034        3.75335695071735        0.01820026810606
C           -5.82188487692412        5.03978616174715       -0.06620115399645
C           -5.50025525136744        5.97795236876187       -1.04116153604005
C           -6.13432883502654        7.20781952280106       -1.10207118358075
C           -7.10917868076334        7.52734573779900       -0.19846560852419
C           -7.49795379917867        6.61919528612122        0.79778261261465
C           -8.50690403539364        6.95783778223831        1.75227740300530
N           -9.20982904917876        8.20336281806286        1.69997210428790
C           -9.43742507785080        8.93647555810798        2.91440619467026
C           -8.46136430943609        8.97603365526167        3.90498260028155
C           -8.67099578577723        9.67568255051272        5.07171149138576
C           -9.85943419844252       10.36149322729504        5.28537845138994
C          -10.09609615556416       11.10031861438153        6.55630874552347
C          -10.83943782771114       10.31152941937782        4.30290040365421
C          -10.63297357410844        9.61293186412114        3.13468865495854
C           -9.79872081510190        8.66926230670725        0.47487707107196
C          -10.32546903211539        7.76811962276555       -0.44481321545278
C          -10.87490188350556        8.21118161431015       -1.62653944450956
C          -10.92028713080225        9.56665775165965       -1.92532672234826
C          -11.49460868163777       10.04557798561288       -3.21300076140521
C          -10.38312321064380       10.46537479429968       -1.01318664958730
C           -9.83340491964323       10.02618964143348        0.16991011154073
C           -8.79781532888510        6.05127676801827        2.75800980175181
C           -8.16701908563580        4.82830029449959        2.83229300554159
C           -7.19560611341322        4.44466921273384        1.91010596802486
C           -6.53260897257442        3.15041401788875        1.98244098145077
C           -6.84394342278629        2.21814264764263        2.96627939354487
C           -6.19377451837188        0.99747036104009        3.04096601217973
C           -5.22521200930835        0.67410468009294        2.13196346168505
C           -4.87563371134416        1.55986954830591        1.10152557236399
C           -5.52387010646939        2.82265621877591        1.02819465378863
C           -6.84155749286671        5.36119124886887        0.87844199958979
C           -0.94025007506086        0.87655643924122        0.51033686676513
C            0.42163122658349        0.82698415172805        0.31633775431821
H            2.82566633109303       -1.26751177125183       -0.74404857558603
H            3.01014733626738        0.21848598859878        0.18287361810374
H            2.73184058094423        0.29574824150399       -1.55821094768540
H            0.60525787915633       -1.96817007226923       -1.54247604547809
H           -1.82974507866543       -1.87740725832689       -1.20338125280872
H           -2.50184802686294       -2.29346775679512        1.41771628484663
H           -3.80049547696385       -4.38186366334090        1.52937756130500
H           -5.99591348282580       -5.45308756673018        1.34816397226455
H           -5.96407830105160       -5.53342834258722       -0.41446899481056
H           -7.28326868655311       -4.70063690326652        0.41098126572610
H           -6.87420559239674       -2.59305180841118       -0.79738734348873
H           -5.56906643842199       -0.50853662056593       -0.91561033853599
H           -2.71086775079222        1.92933437947711       -1.48298078288958
H           -3.80236006147917        4.09289578039701       -1.61424548757314
H           -4.74096949484288        5.75780123365711       -1.76860744130296
H           -5.85621211829568        7.91731238180295       -1.86455028025862
H           -7.58620314947588        8.48914005086217       -0.24208773990469
H           -7.53476531659864        8.45427518365013        3.74024205649312
H           -7.90905066608294        9.69661022707147        5.83224151284644
H           -9.15541602402523       11.41068899618281        7.01358081254790
H          -10.62894917474762       10.47535275416967        7.27437628473492
H          -10.69159371566303       11.99807515167445        6.38373067555220
H          -11.77077068498823       10.82683991835432        4.46581792271710
H          -11.40011243686344        9.57202023796133        2.38136615450093
H          -10.29372494506200        6.71701610274783       -0.21689087153391
H          -11.27518240848691        7.50443476759616       -2.33338268596529
H          -12.23442102190658        9.34372007275194       -3.60063122544720
H          -10.71385241596046       10.16172406412065       -3.96608203202055
H          -11.98830903766097       11.01051592219969       -3.08819543569331
H          -10.39852252610516       11.51713509118595       -1.24343533683815
H           -9.41061396095639       10.72660113052769        0.86892350792703
H           -9.55284202408195        6.31337567314833        3.47866492003898
H           -8.44179838667311        4.16086306075351        3.62800115075490
H           -7.60107322277932        2.43916563189033        3.69574006285527
H           -6.45151567140310        0.29996957654213        3.82144240118916
H           -4.71419600236819       -0.26823062344382        2.20554512974075
H           -1.38103313002872        1.67169136022396        1.08605330706468
H            1.05383235958467        1.59266344524560        0.73280600064648
