28
 energy: -4.764586787981 gnorm: 0.000408544707 xtb: 6.5.0 (97a52f5)
C            2.98880696299491        0.08799214159082        0.04563317065614
C            1.50021022349810        0.05515723691613        0.01610943602024
C            0.75650756213918        1.22492471074661        0.03367901020890
C           -0.61602246934550        1.17983287664563        0.00863668861217
C           -1.29552405409588       -0.03997316667027       -0.03439000415682
O           -2.67927321856123       -0.06745153570649       -0.05683692405045
C           -0.55346163050164       -1.23654677160493       -0.05286825887798
C           -1.29836670029688       -2.57522301657707       -0.09677114400503
C           -2.18973747352692       -2.69439187965519        1.15068127528675
C           -2.16949574156362       -2.62606227809800       -1.36322919846599
C           -0.33107676228039       -3.77462502344957       -0.12265161247410
C            0.82897573942043       -1.15853599722789       -0.02576519843863
H            3.36537273282642        1.11178952974846        0.04480754962114
H            3.40575400550522       -0.42060333948773       -0.82481914647687
H            3.37019397561048       -0.40666139532500        0.94007754786018
H            1.26555934230467        2.17312581570977        0.06802516838137
H           -1.18585936698093        2.09201664608053        0.02262079537161
H           -3.02658572941333        0.85221773496717       -0.03443825369704
H           -2.90940716182786       -1.87779524536966        1.18955676255761
H           -1.58946533647019       -2.65496967920676        2.05916335945989
H           -2.74380508011522       -3.63267945270897        1.14957937508081
H           -2.89124909131637       -1.81048993266733       -1.36822894724578
H           -2.72070819775129       -3.56412919906669       -1.42341472468716
H           -1.55502393758765       -2.53453844721823       -2.25833944471681
H            0.29403465369226       -3.79480291771527        0.76960997668227
H            0.31556873667606       -3.73869863876977       -0.99894624710318
H           -0.88250113596442       -4.71390827793432       -0.15896758107839
H            1.41745915293161       -2.05737049794597       -0.03632343032479
