19
 energy: -3.422595282242 gnorm: 0.000790319097 xtb: 6.5.0 (97a52f5)
C            2.69038797836773       -0.87410865651968       -0.00176518189332
C            1.23875535171406       -0.53665224358129       -0.00026625364328
C            0.28870326032709       -1.55138697900271        0.00025444990240
C           -1.05710329178584       -1.27125553688368        0.00120689021108
C           -1.50295963075921        0.04903146553833        0.00158675230093
O           -2.84954565489388        0.37042640730451        0.00217639365417
C           -0.54874931666089        1.06546746989130        0.00122653308949
C            0.80842843016022        0.79529563885766        0.00033490967019
C            1.78938558195422        1.91719745895741        0.00083869801812
H            2.84788744399556       -1.95340476105629        0.00060839918892
H            3.18751808694553       -0.46672088251046        0.87937559530980
H            3.18454504290122       -0.47103898122590       -0.88656795580965
H            0.62029424949136       -2.57587773856392       -0.00001633762059
H           -1.77941437081887       -2.06834340306559        0.00158067867580
H           -3.38653189530074       -0.45226941715089        0.00161564209711
H           -0.89404315127305        2.08291084835585        0.00186188009531
H            1.28634561097096        2.88497880504559       -0.00114929021502
H            2.42988008993866        1.87709530400038       -0.88097349856659
H            2.42663618472588        1.87905520160936        0.88509169553513
