100
 energy: -19.783723802506 gnorm: 0.000571349472 xtb: 6.5.0 (97a52f5)
C            0.96288609725621       -0.50113490578737       -0.75514059035425
C            2.43673512422416       -0.39345072641479       -0.57686497923973
C            3.08525477606077        0.82331260647772       -0.70621448499506
C            4.44951729049348        0.90232549273790       -0.56275435976226
C            5.21944517623462       -0.22531864156074       -0.27932553097552
C            4.57941145656420       -1.46729450336210       -0.18580411827932
C            3.20352436914744       -1.52222585485089       -0.33334424084020
C            5.36618720670069       -2.77523154476522       -0.02826306090651
C            5.35131720953151       -3.53590315526854       -1.36581124187322
C            5.55089152041668       -4.90792693051939       -1.42573329268439
C            5.59803354709012       -5.56801416551154       -2.63645473680204
C            5.46200953409047       -4.86336382553541       -3.81364970333391
C            5.28776368708299       -3.49638299177637       -3.77512355154288
C            5.24179139742625       -2.84129120151696       -2.56224084778508
C            4.70184743843333       -3.56797869454423        1.11116156686661
C            5.03240071778719       -3.28347348547776        2.42811170959003
C            4.41087072068918       -3.93203749208352        3.47488538113575
C            3.43079237021230       -4.86798520418329        3.22113807510997
C            3.07106930617629       -5.14553342462136        1.91931768836514
C            3.69696744033133       -4.49588344038047        0.87540365074112
C            6.83785206384365       -2.52199975407800        0.31802145467946
C            7.63512056068195       -3.58488968794433        0.70816904455580
C            8.97723054312516       -3.43050855900391        1.01967944227742
C            9.79394753603876       -4.59390140055043        1.46147865486682
C            9.52396753838468       -2.15979207759736        0.95316697157241
C            8.75157548764017       -1.09042043217666        0.56851710813572
C            7.40677080463016       -1.24615633957235        0.23474897085695
N            6.63063540431432       -0.10876688194036       -0.12854717511860
C            7.27293637794022        1.16897109541502       -0.27399377651197
C            8.26317546365576        1.36409211035346       -1.24358365413124
C            8.89613388309569        2.57544880250923       -1.39743873803675
C            9.96526672848205        2.72711223711958       -2.46313636664156
C            9.58236289094438        3.76490625061347       -3.51863973006438
C           11.33734896721873        3.02650322807024       -1.85870313548571
C            8.52732441352187        3.63342307069947       -0.55624542552235
B            9.16841370932582        5.05175690589178       -0.66684716437277
C           10.30536562285919        5.44098665435838        0.29017786303113
C           10.74567119938230        4.48652779729891        1.20259560458064
C           11.75742611255287        4.77443287223300        2.08193929905815
C           12.35216931143137        6.02823853164734        2.06165817404266
C           11.92761678833053        6.97553571708931        1.15850415190647
C           10.90131549206940        6.69915667622274        0.26028315382312
S           10.45298605750955        7.97502583911685       -0.86187952065291
C            8.92873847010648        7.44416058040586       -1.55879445929114
C            8.19802311751950        8.38435709673336       -2.27888127840332
C            7.00319161462163        8.04848752565703       -2.87292812103895
C            6.51274120087184        6.75500534081049       -2.76042644516004
C            7.22080577747020        5.81756451305233       -2.05357417838476
C            8.42727093648572        6.15015889784645       -1.44423490082853
C            7.54420146723423        3.46611204125551        0.42941038904285
C            7.15417768143917        4.61668912652407        1.33469312252058
C            5.68168204870502        4.99306739049474        1.15837294012297
C            7.48289009886970        4.31584488168189        2.79817064387191
C            6.93880024037508        2.24101394421971        0.56057758607081
H            0.46537540224188        0.43743518047095       -0.50655311716050
H            0.54576661490150       -1.27728536549858       -0.11171498418112
H            0.71500236268495       -0.75059010385708       -1.78786072349358
H            2.50988974734231        1.70707571323016       -0.92442408055722
H            4.93817009493466        1.85132551635513       -0.68786612962300
H            2.70953324889810       -2.47437342065423       -0.27399619610898
H            5.66687324069205       -5.46521914555954       -0.51261191820581
H            5.74479207044863       -6.63563275025847       -2.66200549345903
H            5.49894277912389       -5.37812922466888       -4.76009428428418
H            5.19282131027527       -2.93865654367103       -4.69264603892137
H            5.12987977123373       -1.77150048060029       -2.53620404885533
H            5.78355985213670       -2.53842413465344        2.62709712029513
H            4.68826986123339       -3.70347502766534        4.49112764421712
H            2.94270475417306       -5.37509223631113        4.03766343461507
H            2.29716843059247       -5.86811639428019        1.71698090474717
H            3.39796060011375       -4.70491171691150       -0.13712736650008
H            7.19860669866900       -4.56373238438997        0.78695995775428
H            9.44254620707590       -5.51869087416519        1.00115126803002
H            9.74065887754466       -4.71555572361426        2.54440803675765
H           10.84231258576231       -4.46576022210904        1.18760796515224
H           10.55988851592743       -2.01753462671922        1.21065607753342
H            9.18540130985206       -0.10713278620275        0.53793135162078
H            8.51995973664306        0.53960192273431       -1.88384154723455
H           10.03590861022253        1.74949700081471       -2.97288258195024
H            9.57140743874670        4.76494572843476       -3.08803086488908
H            8.59019823447874        3.56864583042546       -3.92784941459677
H           10.29369992630431        3.77809393787371       -4.34587371664995
H           11.34743931572438        4.01346413616587       -1.39904170230017
H           12.12161404553919        3.01602687728085       -2.61721401516912
H           11.60019673213981        2.29944014394585       -1.08882525348686
H           10.28328314349961        3.51511482863801        1.20578660847650
H           12.09099179144667        4.03000600210195        2.78633856550932
H           13.14811899802905        6.25755156691509        2.75115380863118
H           12.38935793643783        7.94891637220143        1.13268784783050
H            8.58739369891884        9.38545720509471       -2.36610342373186
H            6.44949926967738        8.78806408969163       -3.42790759846324
H            5.57832937768115        6.48996607513149       -3.22760867678057
H            6.85063667007625        4.81132732848491       -1.96469096364299
H            7.76095972973744        5.48563683666215        1.02723348117009
H            5.03272075069652        4.17041351745747        1.45896239327286
H            5.45222380104176        5.22723130389720        0.11806894305837
H            5.41489761651356        5.85996012242559        1.76473089530194
H            6.89668472173177        3.47138116554259        3.16064952545528
H            7.26210231808504        5.16909554786038        3.44129082218229
H            8.53584955969058        4.06213163643682        2.92648114881484
H            6.19976024445676        2.08715566988071        1.32554250199302
