120
 energy: -23.668209967733 gnorm: 0.000483271652 xtb: 6.5.0 (97a52f5)
C            0.34588676689921        0.55387367932708        0.42076670159394
C            1.83074266457467        0.48324252288167        0.49851018388393
C            2.57090888718956        1.55746143879796        0.96765272171694
C            3.94376845964249        1.49598373676299        1.00698237027949
C            4.62396381592274        0.35767016031628        0.58360090408274
C            3.89082068926654       -0.72181355061054        0.07537085258725
C            2.50975977214553       -0.63706441641764        0.04310677603356
C            4.61522745444359       -1.90869255315669       -0.57634951836695
C            4.83553284297779       -1.62120480825140       -2.07217415509513
C            5.32359642450711       -2.61052662837505       -2.91326650801479
C            5.56859097919360       -2.35474466795699       -4.24658542310194
C            5.34078145413271       -1.09625676106903       -4.76125222307259
C            4.87857579438610       -0.09365203472405       -3.93576341389544
C            4.63272686269224       -0.35529015512699       -2.60434138929962
C            3.76238894739519       -3.16769846234520       -0.35599564030120
C            3.74421829108325       -3.77857214950706        0.88899935661662
C            2.94248264764285       -4.87492810003504        1.13055918811008
C            2.13015688849011       -5.36884430813634        0.13163860990517
C            2.11709706251273       -4.75816932249126       -1.10471089631198
C            2.92208507416898       -3.66332775927251       -1.34271615130741
C            6.00639469909483       -2.08859900590716        0.04136608600125
C            6.65738286962602       -3.30967135759825        0.00291097498459
C            7.96545681016499       -3.45870508125044        0.44103697561175
C            8.62767808243016       -4.79162732527974        0.41158842613742
C            8.62887704411362       -2.34569664538404        0.93474834932289
C            8.00148725452522       -1.12356264264418        0.98062502269059
C            6.68848479161516       -0.97600684640636        0.54213907649483
N            6.05007724071005        0.29784376196211        0.61523285596535
C            6.86296177369800        1.47686162625518        0.47570576317632
C            6.98803169723584        2.44210031007582        1.49487044445730
C            7.81513507642060        3.51148180753294        1.32569947801749
C            8.55765395168403        3.65899578741986        0.15067876937905
C            8.44707684570732        2.71854570166724       -0.88406546949632
C            7.59643690286964        1.63604601667045       -0.68741540742276
N            9.14843305167266        2.86009590950762       -2.09176393469233
C            8.96718509841048        1.83459587175814       -3.09815761651004
C            8.20542934305989        2.08429827258657       -4.23561072931897
C            8.01110041278133        1.09783954742520       -5.17604746910018
C            8.56488360285274       -0.15443895851650       -4.99118784789113
C            9.31516791364771       -0.41817238350062       -3.86174111598524
C            9.51899857665967        0.56860306097056       -2.92388196939880
C           10.00922986257964        3.93841455773533       -2.35325049058287
C           10.71512838378350        4.02259947385880       -3.56168651034687
C           11.58562894619388        5.05229017840336       -3.80205424260735
C           11.79108354360660        6.03681597714347       -2.83898306790353
C           11.11591980860305        5.97743478902369       -1.65006081671524
C           10.21827262833874        4.94416431973652       -1.40193003643703
B            9.48282073400231        4.83252270131543       -0.07085084410605
C            9.69161603131442        5.89400362781917        1.06059586149814
C            8.90179474722178        7.04770812374795        1.07728685911992
C            7.87236448226890        7.40117333272049        0.01093132293469
C            8.51923187100794        8.07584997404033       -1.19934070968077
C            6.98376180840010        6.23376053936113       -0.41853913692504
C            9.09189513612733        7.96019063486023        2.10103058193909
C           10.01966966660501        7.74953029897676        3.10677446353607
C           10.19194012689730        8.76030501970671        4.22361541818454
C            9.86270317272938        8.14756637364543        5.58698462431822
C           11.59306783773759        9.37506229219090        4.20776510684454
C           10.78171643982631        6.59565721530183        3.06809338421741
C           10.64450370108013        5.66000074103433        2.05691354760200
C           11.51241450414794        4.41039617189820        2.14317138395734
C           10.77388054819222        3.24684519219531        2.80667245658160
C           12.13077708203808        3.98270924359324        0.81253800602208
H           -0.05937381684010        1.20274930407047        1.19863645491220
H           -0.10146794522006       -0.43324138595655        0.54683457340562
H            0.02733467757914        0.94701408963190       -0.54581428897634
H            2.05859608212797        2.44572370893782        1.29667221604798
H            4.50587926244828        2.34043279288558        1.36074289584001
H            1.94448926501988       -1.45382290576601       -0.36718318739787
H            5.50934082099440       -3.59263058114711       -2.51474346529939
H            5.94157876540210       -3.13879346507611       -4.88553747442974
H            5.53255081072299       -0.89461532225101       -5.80267520828989
H            4.71570945072223        0.89661714700535       -4.32927186111695
H            4.28806275232095        0.43619960498624       -1.96307588140599
H            4.36435553904209       -3.38005699328964        1.67380828562120
H            2.94795379564440       -5.34237543829532        2.10184870631682
H            1.50217195818612       -6.22485909271362        0.31867859359382
H            1.47439608922210       -5.13348079321507       -1.88455079847876
H            2.89077648860705       -3.17600496108391       -2.30165363476307
H            6.13910734951125       -4.16927951600920       -0.38215508781599
H            8.26185169708529       -5.39404260958563       -0.42130688353550
H            8.43436275729973       -5.34040581945075        1.33448453407994
H            9.70830954787325       -4.69249474853112        0.29848431183680
H            9.64196328154650       -2.44832755398212        1.28489320425220
H            8.51845531708442       -0.26225377214530        1.36615447009654
H            6.45140464796091        2.30239365125695        2.41677103439278
H            7.91645727495734        4.25203199549238        2.09991876546851
H            7.49171330094012        0.89478649440138       -1.45602824047679
H            7.76732353048533        3.05918905301650       -4.36162137793538
H            7.42060935894526        1.30111793670324       -6.05460463516575
H            8.40714956970293       -0.92758086734437       -5.72550892107172
H            9.74023540127030       -1.39759068356230       -3.71399956083893
H           10.10103102095878        0.37488511010691       -2.03950208161164
H           10.57030044128172        3.25606317607975       -4.30181892383443
H           12.11979872293432        5.09918862259401       -4.73702833279692
H           12.48357228794623        6.84057640257318       -3.02892226083273
H           11.27615003513869        6.72310064241680       -0.89068748781088
H            7.20500077154357        8.14624376156874        0.48164083374883
H            9.11854286860433        7.36358322570330       -1.76319993517897
H            9.17351099297256        8.89493076028350       -0.89690961106315
H            7.76940940667893        8.47643982620275       -1.88354801416243
H            7.55432928673665        5.50499059770330       -0.99173035306798
H            6.16451656078821        6.56764142252877       -1.05748751629549
H            6.55065729911384        5.72301360031319        0.44216488977566
H            8.50246537289234        8.85993196708421        2.11775273085803
H            9.46646976129687        9.57144050156426        4.03632752078113
H           10.56195997428997        7.34784974606975        5.83169138043161
H            8.85917510875391        7.71925971696435        5.59726193218999
H            9.92147063745398        8.88945727750060        6.38498181207018
H           12.35112992109353        8.61564750335279        4.40011932291719
H           11.70097500094277       10.14703253976716        4.97140351559622
H           11.81814373200316        9.82408791945945        3.23908629736484
H           11.49861901493417        6.41971659329042        3.85023936957392
H           12.35368045924164        4.68248630557997        2.80682461942015
H            9.99408488658744        2.86130369174629        2.15275499589788
H           10.30231137518513        3.55443970473910        3.74121173185419
H           11.44739730713960        2.41642314456389        3.02488126946440
H           11.36927656929595        3.58371446770293        0.14479286204026
H           12.87396348243827        3.19556423625096        0.95056548382343
H           12.61741479009925        4.81958420071289        0.31025624005672
