109
 energy: -21.350141484005 gnorm: 0.000651542913 xtb: 6.5.0 (97a52f5)
C            0.50187925650733       -0.17212343299823        0.46572619805239
C            1.98592614435263       -0.22444882968900        0.36365995124421
C            2.72906368907946        0.93040526504733        0.18228166764264
C            4.09679898910631        0.86676868319797        0.06279410528752
C            4.77458177287540       -0.34900337553228        0.12404564609084
C            4.03143205745307       -1.52679377790140        0.26824538969694
C            2.65465812153503       -1.43860196178168        0.38694422804997
C            4.69480939438869       -2.90709306882990        0.16914771605951
C            4.48713093932713       -3.46757994510163       -1.24864666435782
C            4.63845030050734       -4.82021897082707       -1.51868058688762
C            4.51341907500934       -5.30762374043567       -2.80349256735986
C            4.25189210998086       -4.44578211876806       -3.84742037927514
C            4.12431766778801       -3.09516218195869       -3.60268616718672
C            4.24875284757850       -2.61336843802580       -2.31645967976228
C            4.06551024370440       -3.79801745056893        1.25394980695565
C            4.49628605193419       -3.68352922438134        2.56749091304271
C            3.91738609656120       -4.42775837346053        3.57422172413926
C            2.88144863947722       -5.29002295304788        3.28480593527184
C            2.42182472962351       -5.39648763565157        1.98920971453616
C            3.00425170858834       -4.65065513163357        0.98522824722606
C            6.20917688852989       -2.82039773399227        0.38782341106920
C            6.93212780356914       -3.96736163649123        0.66948245983815
C            8.31056261285476       -3.95327345126185        0.82256868057942
C            9.06159380359215       -5.19801466006502        1.14368063098388
C            8.97413935587796       -2.74483569456044        0.69027760017465
C            8.27628263518809       -1.59459397525934        0.41023860035750
C            6.89194888670659       -1.60738510854415        0.25140501806240
N            6.19294811575370       -0.39081870116035        0.00565366273087
C            6.94694366637763        0.80319238247589       -0.27189266202960
C            6.96420134159288        1.88620162896779        0.63750538357465
C            7.73066789122505        2.98643707782487        0.39800080727428
C            8.53293276501326        3.06405909318746       -0.74861586361964
C            8.50569837479744        2.00536931830247       -1.65265317085725
C            7.72850462827187        0.88866330072615       -1.41655521311734
S            9.39438202945477        2.02069284230571       -3.05157685458226
C           10.29019512377954        3.40701038895354       -3.21086943625558
C           11.08379955847590        3.52348112963224       -4.34570888692825
C           11.86326352112392        4.63768903320398       -4.51948293480827
C           11.86233679083443        5.64719698610255       -3.55470627688681
C           11.07718998613332        5.53293909699735       -2.43835083014096
C           10.26401985064173        4.41326408280659       -2.25340242428996
B            9.39849758329169        4.28027446557708       -1.00177451838990
C            9.42179965940833        5.42054253037443        0.07125146962044
C            8.55721923459561        6.51007077895485       -0.06481596162296
C            7.61319669680317        6.71884030092492       -1.24302178858567
C            8.31226630038512        7.41297791672329       -2.41293150370676
C            6.89018121925468        5.45405649953834       -1.70783656473519
C            8.58453789969358        7.49435517113379        0.90837720286007
C            9.42118450148536        7.41306288510594        2.00850853579210
C            9.40249332501608        8.49155344014190        3.07397328624102
C            8.84503186273978        7.95415697495093        4.39397685805586
C           10.78492382481764        9.12142144258496        3.26283443859540
C           10.25459583949903        6.31470336725265        2.12253737064923
C           10.28435525634847        5.31443190956524        1.16592019121684
C           11.21978558058543        4.13793523957290        1.42022041550385
C           10.52295583689445        3.01600089942710        2.19219263618099
C           11.91272404260373        3.59394684064347        0.17075199543883
H            0.17018742486051        0.76859287856248        0.90744111046650
H            0.12211008321594       -0.98266719850945        1.08948818195332
H            0.04280527070432       -0.26214424046222       -0.51979287992455
H            2.22347946159892        1.87978174368870        0.13131450702413
H            4.65686185862279        1.77017235951680       -0.09610027505505
H            2.07979998078090       -2.34136284153575        0.48229725083984
H            4.85502795035182       -5.49772723461766       -0.71128548144924
H            4.62471368363817       -6.36317263334050       -2.99175021981246
H            4.15666238357261       -4.82497210614659       -4.85199403089571
H            3.93579993289202       -2.41435468002511       -4.41694711403596
H            4.17620902524926       -1.55560759185397       -2.13463890712688
H            5.29308696593016       -2.99662145952874        2.79568228838184
H            4.27263496615940       -4.33193590387946        4.58729719316975
H            2.42800884293817       -5.87312710078660        4.06990841920186
H            1.60430871018105       -6.06068365818844        1.76106256699192
H            2.62447751591884       -4.72036483642874       -0.01921302259293
H            6.40899098611961       -4.89949676463809        0.78217401834102
H            8.42852632275347       -6.08101123376641        1.04476648371137
H            9.43923104565035       -5.16973052183907        2.16686288198135
H            9.91295230668189       -5.32308298465149        0.47301751128867
H           10.04370115418373       -2.71590322947704        0.81186439092241
H            8.80192961069207       -0.66056500614074        0.32123602960654
H            6.37683145702777        1.81405154821163        1.53606141847183
H            7.73731041513887        3.80765554703772        1.09321085609661
H            7.73737798408255        0.08441806732728       -2.13161823332724
H           11.07094163557665        2.72142546894384       -5.06609489397073
H           12.48172752214606        4.73217650479383       -5.39672717538712
H           12.48285075763421        6.51776746764978       -3.68987658187925
H           11.08131512824629        6.30313767655819       -1.68681528496027
H            6.83211835346518        7.40867256895190       -0.87414011487151
H            9.03080793473895        6.74528579781562       -2.88436925559647
H            8.85105239662340        8.30313221655630       -2.08472799663057
H            7.60100741232999        7.71319672198713       -3.18400283526770
H            7.58482342771816        4.76259721600020       -2.18258399096438
H            6.11846206884097        5.68241464435214       -2.44477395027079
H            6.41407818528766        4.93607576424280       -0.87459723216808
H            7.93582734782335        8.34683331331340        0.80978784026441
H            8.72007414318071        9.28281868543237        2.71642232002869
H            9.48942646601346        7.17139216258895        4.79506366666935
H            7.85182996746614        7.52272678101149        4.25856089390947
H            8.77252609838756        8.73895349015643        5.14854212033565
H           11.49688433709576        8.38890064648213        3.64412812346271
H           10.75485146589106        9.94816684003624        3.97422630925405
H           11.17982743950775        9.50174504934074        2.31907840111418
H           10.89267436237174        6.23239386444353        2.98435658465656
H           12.01836523320643        4.53613917036558        2.07283542059407
H            9.78676643659977        2.51544712220986        1.56615570453385
H           10.00494311772254        3.39897501029453        3.07267545610653
H           11.23251364108461        2.25520935135435        2.52144146592054
H           11.20004828406072        3.08667229508956       -0.47773514613616
H           12.68218952412117        2.86362592828086        0.42593533557513
H           12.38546784510003        4.39118792288236       -0.40366109125126
