32
 energy: -7.057122056240 gnorm: 0.000591229151 xtb: 6.5.0 (97a52f5)
C            0.97955585994237        0.05323058384808       -0.04355831171213
C            2.46734504669670        0.07816660204495       -0.04418418691521
C            3.17351205021611        1.28285936347557       -0.04474553882765
C            4.54245794626344        1.29737894481772       -0.04542922899872
C            5.28552433488116        0.10754750601815       -0.04560759843159
C            4.58118495490564       -1.11413199601391       -0.04495638265028
C            3.17809344956323       -1.09488329782492       -0.04425837498877
C            5.29008975813720       -2.36811548747923       -0.04511274252748
C            4.54317384824796       -3.54998594544211       -0.04411723316708
N            3.86250694165419       -4.49238888367484       -0.04247529797005
C            6.66407946182290       -2.38681330337396       -0.04639992608439
C            7.37810247143249       -3.58885346646743       -0.04668465285314
N            8.03284799379348       -4.54952784665882       -0.04883543315903
C            7.40702406605200       -1.15264924260156       -0.04725619939473
C            8.81019710341895       -1.17208496251018       -0.04866651957479
C            9.55246545746675       -0.01770985621369       -0.04959190437084
C           11.04014237286117       -0.05870927992354       -0.05079278969228
C            8.87913767663724        1.20460909931211       -0.04904739244017
C            7.51119101407063        1.25692664448679       -0.04762175489130
C            6.73611371525337        0.08775165115289       -0.04673874980398
H            0.56369944536121        1.06096402915936       -0.04394451496609
H            0.60194314600649       -0.46402881134457        0.83899407113587
H            0.60122820063817       -0.46498520648927       -0.92524511941615
H            2.62470898042729        2.20887304929255       -0.04469404214478
H            5.05208626567366        2.24331147043028       -0.04588703699637
H            2.64719694857505       -2.02965832159739       -0.04383106965354
H            9.31280136207413       -2.12220846747541       -0.04894184543097
H           11.40942425356059       -1.08462978552030       -0.05243995526252
H           11.44232955041382        0.43852188936660        0.83229405895492
H           11.44099545498810        0.44087701589927       -0.93315204334158
H            9.45533594719910        2.11397029733293       -0.04978706746263
H            7.02778492176540        2.21651601397388       -0.04717521696253
