105
 energy: -23.215343088337 gnorm: 0.000836293643 xtb: 6.5.0 (97a52f5)
C            1.29056055549828        0.01635138094877        1.05254684966764
C            2.75393146394845        0.04541831371530        0.78292853450476
C            3.45999215931953        1.25822058595518        0.85677655380500
C            4.80440757766037        1.32648894431675        0.59230839064711
C            5.48136144692876        0.15967544735296        0.24722908779554
C            4.78663696291748       -1.05568327911917        0.14962654509474
C            3.41865627668324       -1.10875397180327        0.41751654005332
C            5.73801606278146       -2.06043410854736       -0.25954654675681
C            5.60918902112790       -3.42349570673773       -0.52606313795740
C            6.71917058352965       -4.14550408260514       -0.91823780492719
C            6.60811109012160       -5.60436394565367       -1.19104941753872
C            7.96408588351520       -3.50165331279728       -1.02085306744768
C            8.10656820758915       -2.16226372466483       -0.75998078002852
C            6.98383050130071       -1.42696088360221       -0.38909245478982
N            6.83532367877896       -0.05892126949063       -0.08055896029643
C            7.86438026853597        0.93961905926110       -0.10687459936886
C            8.56797452188759        1.20429440281615       -1.29440518641464
N            8.32292636842347        0.43643652914195       -2.48278981670594
C            7.07385498137248        0.19218496009237       -3.08788936791748
C            5.81337339687477        0.72610382646994       -2.82585021904154
C            4.73407528110065        0.24988451449793       -3.52702717557543
C            4.88838718541578       -0.74570771184186       -4.49600901079603
C            6.12533005568369       -1.27424368903192       -4.77641328147588
C            7.23170906421670       -0.80050734893673       -4.06968189718974
C            8.62774235755137       -1.16668945449735       -4.08842149200015
C            9.34157600119494       -2.12039636320341       -4.81564364938951
C           10.68296817934773       -2.27469593574584       -4.56081392928217
C           11.32567804268032       -1.49941578726427       -3.59092153104265
C           10.63646123653890       -0.56019611297199       -2.86490248981384
C            9.27583600451601       -0.38707407791400       -3.11564984377589
C            9.53222664208753        2.19486023101948       -1.30826395263333
C            9.82431944849339        2.93348708285773       -0.17015493298078
C           10.83710375906749        3.99160537537182       -0.20756759030032
N           11.35869870062135        4.28884312248344       -1.38606890258038
C           12.25126943409397        5.26446710614290       -1.36150621972277
C           12.85176978131336        5.65960807565204       -2.64279875872428
C           13.79740865022143        6.67892658213191       -2.70037920056538
C           14.35431196602155        7.05226654718991       -3.90327083354993
C           13.97598918962031        6.41395674170265       -5.06830394722752
C           13.03854650934147        5.40039805222819       -5.02730322229331
C           12.48078860652888        5.02604155833937       -3.82517256633517
N           12.64329292832255        5.91380357236715       -0.27699726109324
C           12.06233186936313        5.52158322257030        0.84548312907241
C           12.46867983774517        6.18894498325274        2.08962264551782
C           11.91637240005598        5.80987223019232        3.30954812973183
C           12.30279428609616        6.42845565964385        4.47755870886503
C           13.24673863606861        7.43631895502426        4.44653964697864
C           13.80347413455001        7.82406907463293        3.24337841565882
C           13.41853286059375        7.20585596634954        2.07453970088623
N           11.14581696140085        4.57288164959022        0.93955702851498
C            9.13381967248999        2.65983912034565        1.00224441437312
C            8.16191376920568        1.67817031066532        1.05115630383969
N            7.44556768600358        1.44619594218732        2.27357214520200
C            7.22924389011735        0.20039305372533        2.89595838103126
C            7.75779215856043       -1.05989866306662        2.62208706974026
C            7.31375529867180       -2.13615479972680        3.34858604831765
C            6.35587324434201       -1.97883469316672        4.35436050471879
C            5.83452075931063       -0.74174096875241        4.64740315295466
C            6.27636813397138        0.36162242020210        3.91563233881665
C            5.91129557503522        1.75771158586253        3.94351522440724
C            4.99790690591661        2.47623569708740        4.71626251821082
C            4.83609992780174        3.81771198562398        4.46688033972301
C            5.56500597286364        4.45587990455314        3.45880325593729
C            6.46627203611519        3.76237489375982        2.68999547018156
C            6.64824356221286        2.40187154740950        2.93540628356437
H            1.00777258721091        0.78494456476604        1.77308062504053
H            0.98479448064852       -0.94784870704561        1.46078224849015
H            0.72468163443802        0.18901595743072        0.13617699180793
H            2.92553044170332        2.15173094083369        1.13017299643252
H            5.34384276877789        2.25390672223832        0.65578365668576
H            2.89165308855940       -2.04161400255146        0.33650834819487
H            4.65212935058357       -3.90176193869451       -0.42684191126254
H            5.61887086366167       -5.85864941908486       -1.57398361917497
H            6.77603286559903       -6.18226886310110       -0.28135284632729
H            7.34138676741332       -5.92293203953213       -1.93312267739995
H            8.82225162223518       -4.08024809946425       -1.31666167988025
H            9.05723629826251       -1.66929676691499       -0.85144308394007
H            5.70476519407754        1.48157772532851       -2.06884137287624
H            3.75210714882549        0.64364388386185       -3.32208448550489
H            4.02341678621391       -1.10452335981440       -5.02908580780241
H            6.25184717841268       -2.04499303710484       -5.51607130522877
H            8.83734892937902       -2.72151314317631       -5.55155568736928
H           11.24822088626295       -3.00739055771656       -5.11289449941339
H           12.37786425335899       -1.64449338796751       -3.40861928095654
H           11.11972276395383        0.03289943868455       -2.10927540460202
H           10.06263560340853        2.40286682583131       -2.21839684474232
H           14.08310372662796        7.17036908961526       -1.78680243817199
H           15.08517833407482        7.84363490144387       -3.93523948000054
H           14.41180066613023        6.70699713296681       -6.00946694403375
H           12.74257311836999        4.90296776410155       -5.93637444473297
H           11.74799087243407        4.23924564432021       -3.78162286358443
H           11.18363954699706        5.02190697738265        3.32174591113062
H           11.86920628258291        6.12484777154486        5.41631751648929
H           13.54951723026697        7.91964919669582        5.36102622416966
H           14.54052569758065        8.60995675660453        3.21948623733622
H           13.84726353232233        7.49815234692012        1.13192690351756
H            9.35970870483134        3.22432648147657        1.88724203395565
H            8.48556262815935       -1.17051961342307        1.83865895848516
H            7.70386252293182       -3.11790331749301        3.13570754818321
H            6.02102120088265       -2.84157668487335        4.90632179200247
H            5.09324585082696       -0.61277699379310        5.41618442934215
H            4.43337620481732        1.97546482420360        5.48288195131674
H            4.13410667193720        4.38678089363034        5.05383226209173
H            5.41448327621243        5.50816350108558        3.28160437300406
H            7.02485280770235        4.24328026720596        1.90709535911373
