117
 energy: -25.014606514069 gnorm: 0.000603267147 xtb: 6.5.0 (97a52f5)
C            0.91837970500139        0.72625083364583        0.78449111245691
C            2.36544838405049        0.64395165565401        0.44547849107781
C            3.12708498724277        1.81794008272877        0.31378169151194
C            4.46044538062915        1.78008102029783       -0.00796568302346
C            5.06941109909207        0.54285684461999       -0.20374004590568
C            4.31626367890713       -0.63764711888290       -0.10161340875496
C            2.96079025609316       -0.58254382980466        0.22525966429674
C            5.21698498142445       -1.74153444469113       -0.33361306028070
C            5.03898553523154       -3.12489674412342       -0.29120934724163
C            6.12456553509355       -3.95469339340907       -0.49154720969580
C            5.96282289571770       -5.43264445550559       -0.41799438591590
C            7.39428120720963       -3.39403994067602       -0.71546013955530
C            7.58774085126994       -2.03580833892920       -0.75530716517225
C            6.49048598068213       -1.19781490602110       -0.56730319857310
N            6.41256676966767        0.20634192513548       -0.46708595739682
C            7.54740533946255        1.07981704382298       -0.36126880393012
C            8.46072721350698        1.14977018933240       -1.39648520060440
C            9.59347394302376        1.94705300020581       -1.30562141481915
C           10.54938274867741        2.01186241256197       -2.41452829059198
N           10.21684140791194        1.39626347431478       -3.53694460798168
C           11.11257659702272        1.49685754025747       -4.50481725552771
C           10.79246545562660        0.85668916699153       -5.78786248496200
C           11.68739645492129        0.91145247023253       -6.85219879989985
C           11.38050559281911        0.32173255005864       -8.05830152636250
C           10.17454507396813       -0.33186252280875       -8.22119946049686
C            9.27609494741449       -0.39502050312111       -7.17391058061313
C            9.58180985866143        0.19389036374959       -5.96713210236979
N           12.26965435453613        2.13243665646620       -4.41154010538435
C           12.49623133488703        2.70455468024841       -3.23992610028703
C           13.77031125091927        3.41538559972668       -3.06727095494641
C           14.08804353009998        4.01502049444415       -1.85211134620889
C           15.28557674595797        4.67457281154752       -1.68668687793533
C           16.18538284913048        4.74631032743194       -2.73224163292500
C           15.88418225939741        4.15610032320400       -3.94428747066806
C           14.68729944844029        3.49552861509958       -4.11098469503817
N           11.66934601167693        2.68438781915405       -2.20800828780077
C            9.80601629507359        2.68277510907018       -0.14777545183531
C            8.91250893711469        2.63626958769417        0.90567846343937
N            9.14582880553685        3.43262965995229        2.07818669955924
C            9.10003879312830        2.98018504151055        3.41264650633623
C            9.06660690735945        1.69004914835326        3.93650843440400
C            8.91940395056785        1.52931254200418        5.29122432018545
C            8.81900749116439        2.63027155898717        6.15906845264506
C            8.61123918793171        2.41341990275742        7.61685955579538
C            8.86496869906499        3.91064479983530        5.64329770648228
C            9.01489670952437        4.09051518682427        4.26762261832766
C            9.04536248396651        5.27166147989328        3.43861156091649
C            8.93744238398994        6.63062644527483        3.73593935547969
C            8.93093214321768        7.55114967265488        2.70658744535956
C            8.78288662802690        9.00296914055692        3.00011823510091
C            9.01416047049376        7.10448567733568        1.37604598461817
C            9.11750107058838        5.77132851655738        1.06617499527354
C            9.13922568909041        4.84255078297204        2.10464122119497
C            7.76479989583284        1.83134409975467        0.80577648954531
N            6.82376732349908        1.77788121653152        1.88748540987844
C            6.46954628505552        0.63210905212887        2.62968912202149
C            6.89840265644702       -0.68868740589688        2.52860932596746
C            6.38828667014351       -1.61899427826754        3.39843628617564
C            5.45230184304374       -1.26996823945716        4.38697002213677
C            4.94122871090237       -2.30237400431763        5.32929574750024
C            5.04263872461538        0.04378630304766        4.50382828920949
C            5.54869640877640        0.99977078712731        3.62304218021813
C            5.32476819377770        2.41950365285562        3.49531816789190
C            4.52597594910634        3.31367403880931        4.20827754998077
C            4.51412537125052        4.64724346615862        3.84898204706393
C            3.65655438339109        5.61624053081079        4.58431790593307
C            5.28638155684131        5.07793918800122        2.75673523703130
C            6.07400460856709        4.20940178895797        2.04420664762612
C            6.10913945807366        2.86978821849388        2.42223829309176
H            0.70558817249239        1.60817333629570        1.39021114199138
H            0.59687808411929       -0.14879653491721        1.35098651433698
H            0.31132447541182        0.78388241570822       -0.11990566429134
H            2.64634509157007        2.76694478641156        0.47879323657606
H            5.04560892976734        2.67802768550519       -0.09207863352783
H            2.39243414959796       -1.49029409775394        0.31314004321715
H            4.06628999401447       -3.53522439519054       -0.09049129170755
H            4.97388613001881       -5.73775423966492       -0.76269854750465
H            6.08569094053198       -5.78471719723973        0.60710541995879
H            6.70096527215831       -5.94132448188289       -1.03949779838887
H            8.23302682269445       -4.05515271904012       -0.85126251034819
H            8.56264370485698       -1.61097104089817       -0.91456024430502
H            8.29214846824893        0.57788907213161       -2.28945056422171
H           12.62249417835584        1.42578639124778       -6.71476175213237
H           12.08110743356908        0.37186976652170       -8.87571741982064
H            9.93408828864197       -0.79130226156612       -9.16606153896452
H            8.33433775611134       -0.90329517156535       -7.30147587600536
H            8.88779724318855        0.15468024995935       -5.14566469348800
H           13.38046443007446        3.95040722151752       -1.04392539604617
H           15.52089060962016        5.13379801849968       -0.74050356356541
H           17.12278286820248        5.26204987727081       -2.60206950349143
H           16.58670415713340        4.21104174644403       -4.75974211113575
H           14.44380403995749        3.02872012891062       -5.04940806722552
H           10.68273631824110        3.29773478263644       -0.07037999447524
H            9.12864922874677        0.84678409964113        3.27246286997272
H            8.86511486137967        0.53759185361812        5.70660007641256
H            9.10268940024358        1.49933344167855        7.95273300232684
H            7.54830011674633        2.32836135971918        7.84678111080016
H            9.01708171545830        3.24101051944483        8.20019841428262
H            8.76999359235945        4.76441650738291        6.28889446217511
H            8.84646921319693        6.95131263449627        4.75754307295960
H            9.24697117469510        9.26069277557460        3.95308430245420
H            7.72954932243569        9.28163381477142        3.05212742496948
H            9.25458696512174        9.61163460941186        2.22753452366978
H            8.98873413809195        7.83420749007628        0.58494116066860
H            9.16982769714725        5.43304231235997        0.04679349285368
H            7.60829672472676       -0.95914788005258        1.76840671391083
H            6.70631701643317       -2.64493212549256        3.32679676581776
H            4.92888484439211       -3.28888765104089        4.86383346247517
H            3.92305804336555       -2.07443532628079        5.64770787616491
H            5.56862361372552       -2.35788632904718        6.21992094935151
H            4.34163536453537        0.33294592905638        5.26513952248378
H            3.92832569943076        2.96256213636606        5.02933263553416
H            3.52990349051424        5.31838350384421        5.62607300863268
H            2.66713111321170        5.68033037917623        4.12952623158554
H            4.09621854718545        6.61459440446066        4.57724087905387
H            5.25695348759949        6.11805185854806        2.48079556278545
H            6.67021272015280        4.54209197313182        1.21404311015353
