78
 energy: -13.201811698115 gnorm: 0.000324307581 xtb: 6.5.0 (97a52f5)
C            1.02430572167223       -0.01980625593002       -0.29912900280660
C            2.49052991430057       -0.03152291819069       -0.04207659311282
C            3.07627424682463        0.99447153867888        0.71797155876104
C            4.42031936013379        1.01157880301908        0.99879715954788
C            5.21689242761044       -0.02601433472853        0.51565555693942
C            4.64727727576333       -1.05952311674229       -0.23926709502153
C            3.27911634413821       -1.06238323645264       -0.51447011451910
N            5.67879450092237       -1.94298365678306       -0.57856376458783
C            5.46754901783127       -3.21130388458626       -1.26998793965547
C            6.86227844494770       -1.47140302885700       -0.04342722246492
C            8.16674567420142       -2.10530158091254       -0.15484225357829
C            9.00470457860131       -2.23395384234117        0.96256549330482
C           10.22833233630937       -2.83875017032171        0.86140397946815
C           10.69519579523731       -3.33762175496099       -0.36454450082163
C           12.01168136749409       -3.97951797533024       -0.47150478998272
C           12.76238871133272       -3.91129524143751       -1.65326535882717
C           13.99658316485599       -4.49936715653190       -1.74723588660055
C           14.55040423531297       -5.20602037611280       -0.67072567212023
C           15.87208620058365       -5.83822930854434       -0.77154381915316
C           16.17820238514327       -7.00410763561950       -0.05243489707665
C           17.40879516344854       -7.59588909235994       -0.14891920306153
C           18.41342437956594       -7.04719423056245       -0.95955243804612
C           19.72450690306153       -7.66927881936331       -1.05771896470752
N           19.97599820934748       -9.01810956784846       -1.22147210621643
C           18.99596983836372      -10.07746756352095       -1.44227802577592
C           21.36071568786070       -9.21392294829729       -1.28249052350209
C           22.14126550810198      -10.35989468356861       -1.44058320143022
C           23.51707571968431      -10.24473499159322       -1.46750698540796
C           24.36930826019529      -11.45624273700771       -1.61518984578630
C           24.10788324677791       -8.97876641387346       -1.31711000688229
C           23.35433574641578       -7.84148454976243       -1.16061213527494
C           21.96471048598185       -7.95725631231967       -1.14671291405796
N           20.93997056546672       -7.01392618394207       -1.01038526158410
C           21.17004460492835       -5.60083377815083       -0.72388131798359
C           18.11279296113197       -5.87814845708135       -1.67401635728144
C           16.87676305487915       -5.29642954182466       -1.58815830065225
C           13.79519308809654       -5.28291071336374        0.50753671942235
C           12.56784389746498       -4.68185825918607        0.60656015193792
C            9.85803527392300       -3.19988165002326       -1.48272243709694
C            8.62744498177226       -2.60886215600046       -1.38035086086257
N            6.58542771958918       -0.29590131937637        0.62775212303161
C            7.54410120661063        0.61377649794791        1.24831362757750
H            0.67015391410201        0.99132837428260       -0.50284846386367
H            0.47692517906736       -0.40140667936727        0.56347285151237
H            0.76756529744880       -0.63758000224141       -1.16011279872034
H            2.44640609278773        1.78495022308074        1.08903674407081
H            4.85851312001047        1.80006240306158        1.58411726270524
H            2.84848628577385       -1.85967932898432       -1.09093245114480
H            4.53962433414278       -3.66801112809761       -0.93363064568667
H            6.28193087050049       -3.89922040235207       -1.05586658525292
H            5.41110765447266       -3.04500702990843       -2.34331794458454
H            8.65883287323702       -1.87033882512618        1.91427245245310
H           10.85793597217189       -2.91142204649131        1.73051463297549
H           12.37060799488682       -3.36249476495671       -2.49151674292611
H           14.54325439681841       -4.44131033600981       -2.67197621462203
H           15.42039456532896       -7.45249775973267        0.56540742485857
H           17.62860529058202       -8.48162526408392        0.42093987438497
H           18.04781118438196       -9.65462014210038       -1.76550962396110
H           18.84347233476820      -10.64044657734590       -0.52429986039650
H           19.34827556610568      -10.75393217361327       -2.21755698036689
H           21.67249478558756      -11.32159554966430       -1.53503251129244
H           23.89747967796881      -12.19144249516295       -2.26785006443862
H           24.54470590530117      -11.92707576521053       -0.64734000181094
H           25.33851844577782      -11.20732136336402       -2.04861249391501
H           25.18203143044643       -8.90585351708431       -1.32536359547920
H           23.81602031653769       -6.87619066532546       -1.05397549703284
H           22.01226259037301       -5.49187306270161       -0.04441857937623
H           20.29384744989277       -5.16292245587115       -0.25181288279727
H           21.38734188802680       -5.06484030136897       -1.64494800572799
H           18.86564678711314       -5.45499871539372       -2.31568711244749
H           16.67651142080166       -4.39184076911074       -2.13466460056101
H           14.20249749685105       -5.80134508844037        1.35763428334637
H           12.00597627347859       -4.77007006805455        1.51971796757159
H           10.18214370440473       -3.59075004815503       -2.43099607257504
H            8.00560933619625       -2.50094051583019       -2.25171312783336
H            8.54621974752033        0.42147304659198        0.87269768075222
H            7.53445488800513        0.48477224910865        2.32819685684353
H            7.28470672322807        1.64344914872418        1.01294825125448
