17
 energy: -3.142757528088 gnorm: 0.000594661335 xtb: 6.5.0 (97a52f5)
C           -2.41112002818206        1.09642044244491        0.01413067271354
C           -1.13827543600660        0.32494762059449        0.01040674213902
C           -1.17640914345541       -1.05662758702717        0.00657247292677
C           -0.00229132822250       -1.76558739975922        0.00167022897909
C            1.17432562645835       -1.06072626371961        0.00159529965833
C            1.14105644088764        0.32095533442943        0.00736810903068
C            2.41658247701307        1.08800718520706        0.01730225673348
N            0.00261092152952        1.01393846146657        0.01109495916066
H           -3.28154799985156        0.43951027575966        0.02061974415132
H           -2.47364126969116        1.73275867370017       -0.86885962280594
H           -2.46496328786175        1.73854076966938        0.89349949240941
H           -2.12435958028388       -1.56723196792266        0.00811477764493
H           -0.00421926560104       -2.84355538707315       -0.00212035084040
H            2.12047061176489       -1.57460284677691       -0.00033526970426
H            3.28477388458056        0.42811261461780        0.01800670696246
H            2.47281617793785        1.72238807546778        0.90218474558613
H            2.48099119898407        1.73179199892147       -0.86013096474522
