16
 energy: -2.975440241474 gnorm: 0.000637725529 xtb: 6.5.0 (97a52f5)
C            2.51641032812179        1.17277495362237        0.00271068995721
C            1.26273793549263        0.37000426820662       -0.00009583796788
C            1.29850617888081       -1.01856851094180        0.00649269656710
C            0.12804259254093       -1.75249679852970        0.00411191693348
C           -1.09076573364363       -1.11533212013193       -0.00463400699729
C           -1.16033597769738        0.27841433009052       -0.01128810140764
O           -2.36894248474630        0.95101654167908       -0.01869571274542
C            0.03317468453564        1.00127991920398       -0.00905557204585
H            3.39968718091359        0.53318361419756        0.00942720244561
H            2.56335084684872        1.81536564185460        0.88274069783269
H            2.57176329146375        1.80847155279579       -0.88179821754681
H            2.25055091746515       -1.52071945552601        0.01350514813884
H            0.17055933639744       -2.82931045848875        0.00926881182491
H           -2.00317800177727       -1.68474359644770       -0.00650804482638
H           -3.10897757421004        0.30488739552332       -0.00757166407374
H           -0.01902352058584        2.07432272289207       -0.01409000608882
