47
 energy: -9.640538129206 gnorm: 0.000927422048 xtb: 6.5.0 (97a52f5)
C            1.12909588044710       -0.04789873867582       -0.04468240674108
C            2.59849619759121       -0.29220202411420       -0.02980479882540
O            3.21573792123390       -0.16882524172636        1.00443361095600
O            3.16741378994570       -0.65759320328509       -1.21098898404339
C            4.55335923198592       -0.81287190753831       -1.03675301938936
C            5.19944733032467       -1.57960772743095       -2.17261636801827
N            6.62048685278652       -1.77953545186416       -1.95473892400276
C            7.10459764873235       -3.08966162938846       -2.01853291445455
O            6.35818851322593       -4.02182201897421       -2.25228210092690
C            8.53602532239662       -3.30308225874676       -1.79405584882192
C            9.06323281250848       -4.57113976530608       -1.80626385200351
C           10.41822059854655       -4.77928361040538       -1.57652613427861
C           11.25215079465293       -3.72021883510523       -1.34720467813683
C           10.76387621249467       -2.40548203077606       -1.34664393178478
C           11.61696146932394       -1.27603970234194       -1.11466858517256
O           13.00372436920535       -1.41160559921097       -0.94916017854721
C           13.75694693513967       -2.06438740725013       -1.93282504160757
C           15.03701632264796       -2.51731212897728       -1.61039462698362
C           15.80759488805010       -3.16555825844459       -2.54010140682653
C           15.32620207120919       -3.37800673731994       -3.82936482605185
C           16.11675075348763       -4.06785775964018       -4.83677164153609
O           15.74182931409756       -4.30190943527792       -5.95346173077186
C           14.05825609204486       -2.91553132680430       -4.15912293948794
C           13.28613211863357       -2.26656054589838       -3.23138548688253
C           11.04616017388236       -0.01200396496122       -1.04122029655916
C            9.69317218688404        0.18003381045960       -1.23492091118555
C            8.85466506642125       -0.88155998234604       -1.49980633571562
C            9.38261147419506       -2.19402784801178       -1.55316052544272
C            7.42630034150897       -0.66130563855190       -1.70532830512135
O            6.95321267237716        0.45992206131978       -1.65388485994051
H            0.90742844788833        0.94134260763997        0.35250250562329
H            0.61669561685936       -0.78625352737180        0.57002639933875
H            0.74278588905905       -0.11119856134166       -1.06089425571960
H            4.71886195770315       -1.32016078828053       -0.07680959225103
H            4.99172096434012        0.19131094468084       -0.95159325568897
H            5.06304689699573       -1.04854343248699       -3.11886138428543
H            4.72744558757314       -2.56224651311148       -2.27840334593648
H            8.40039365034384       -5.40040118203983       -1.98871492926437
H           10.81042939742004       -5.78278065001388       -1.57638749687707
H           12.29688868175755       -3.88505675444653       -1.15251395564245
H           15.40089631088527       -2.34763460525489       -0.61259132399633
H           16.79154748205957       -3.51560894168343       -2.28033529956923
H           17.11305412767485       -4.39992555628792       -4.57976772675285
H           13.69999541902764       -3.07734206273271       -5.16197069442550
H           12.31009243623806       -1.90099844041572       -3.49514526794388
H           11.69286991713783        0.82441089127611       -0.84461817324707
H            9.26442186107386        1.16705147847186       -1.18516415505328
