19
 energy: -3.420405443530 gnorm: 0.000477855948 xtb: 6.5.0 (97a52f5)
C            1.03057511062447       -0.04869405343926       -0.00254960694761
C            2.51967979082914       -0.08013490018675        0.05048593789754
C            3.23849354157006        1.10868356365402        0.03813003244594
C            4.61710046950038        1.10577423022235        0.09133972288072
C            5.30128748717639       -0.08266724107563        0.15944557867108
C            4.61296672527845       -1.29645503839180        0.17609950225635
O            5.28554196224988       -2.50399885077574        0.24702564018961
C            3.20673140815705       -1.29015577243460        0.12080753116677
C            2.48844955874109       -2.58932185108272        0.13563298616295
H            0.65790445659589        0.96989292467273       -0.11730745990132
H            0.59982030061672       -0.45719380640928        0.91234472617834
H            0.65673795163347       -0.63205729461229       -0.84467381400007
H            2.70653105581064        2.04319933499386       -0.01409364991861
H            5.15768911229092        2.03821505846592        0.07985908065885
H            6.37601105940125       -0.08937490139816        0.20162370455073
H            6.25429144966492       -2.34096292047072        0.27444121566920
H            3.19538026489097       -3.41616197532459        0.21710986265711
H            1.91516868162689       -2.73172043795864       -0.78112948914893
H            1.80469961334143       -2.65100606844870        0.98310849853135
