21
 energy: -4.196445021409 gnorm: 0.000459712831 xtb: 6.5.0 (97a52f5)
C            1.72698369422700       -2.30783478130481       -0.00766511557600
C            1.35066171366984       -0.86613955431233       -0.00780233664761
C            2.32224709342893        0.09932137542118       -0.01022197670915
C            2.00064089673674        1.46200960957039       -0.00985856437242
C            0.70094111530237        1.86253773250360       -0.00686832346895
C           -0.34257765297016        0.91029944270788       -0.00475879888466
C           -1.70164606973466        1.30180563300014       -0.00483997531553
C           -2.69382990740978        0.36980061116365       -0.00742191872587
C           -2.38105780749502       -0.99497650909767       -0.00959296401290
C           -1.08268189210984       -1.40654073303698       -0.00867295108119
C           -0.02073039459297       -0.46970169253998       -0.00598461765490
H            2.81027426845948       -2.43679761723324       -0.00834984546681
H            1.33498425428158       -2.81388214556238       -0.89109033716745
H            1.33618412595990       -2.81318140924280        0.87672469448859
H            3.35702474982654       -0.19863198221806       -0.01254355675798
H            2.79061705141301        2.19542228226172       -0.01199416567108
H            0.45279626114625        2.91015805994060       -0.00676600247655
H           -1.94133151754556        2.35137548766608       -0.00345472193451
H           -3.72611149191667        0.68017038759153       -0.00819929641447
H           -3.17668405545087       -1.72230325181836       -0.01218551487705
H           -0.85549443522609       -2.45822094546015       -0.01052371127348
