15
 energy: -2.813624445471 gnorm: 0.000175740361 xtb: 6.5.0 (97a52f5)
C            2.47068411747923        0.00089553278755       -0.00937520426003
C            0.98104108538362       -0.00523447026259       -0.00504504630809
C            0.26777681797348       -1.19615893006541       -0.00456113909163
C           -1.11270801404511       -1.19119360696753       -0.00226649925831
C           -1.79940928410525        0.00538568074168       -0.00077145237721
C           -1.10340907729408        1.19654720005647       -0.00167620482624
C            0.27700714495484        1.19011730018077       -0.00395499957720
H            2.87391860358246       -1.01263314700413        0.00948532678281
H            2.85994387189308        0.53023033679576        0.86165979942154
H            2.85477105838388        0.49555176717137       -0.90279258117881
H            0.80327402879328       -2.13039793403932       -0.00607454120442
H           -1.65459170855655       -2.12310447823050       -0.00195679678613
H           -2.87744752319885        0.00960148110877        0.00080286761607
H           -1.63771648274433        2.13281118108363       -0.00068418413034
H            0.82234536150029        2.11879208664347       -0.00499934482201
