100
 energy: -19.764336276691 gnorm: 0.000176737147 xtb: 6.5.0 (97a52f5)
C            3.83018014835491        1.03280588701099        1.80766202921425
C            2.70266290139053        0.25752783814223        1.22564566959225
C            2.68194897920983       -1.12333136475186        1.32795608824613
C            1.63745311789693       -1.86224884007795        0.80793343295596
C            0.59181654756727       -1.22436934151394        0.17293296796198
C            0.59817579830702        0.14536372791438        0.05163258259404
C            1.64993156973234        0.90535346651530        0.55963303549004
N            1.63520324024321        2.33474236248334        0.38064975197621
C            0.43441171643967        3.04883510331365        0.71586854957382
C           -0.38663366229760        2.62371321865109        1.75365966498433
C           -1.53854013715990        3.30968902021217        2.06805546691373
C           -1.91630577263006        4.44502499782446        1.35894131735203
C           -3.19327560292719        5.23643913219107        1.68155968791406
C           -2.81522476312943        6.68103453565803        2.05780523673158
C           -4.11206794056214        5.24636421575511        0.44580805116454
C           -3.96955840573880        4.61520253503059        2.85872183382562
C           -1.09284382981461        4.86372526556727        0.32074744941002
C            0.05886054140158        4.18110071280096        0.00249962287671
C            2.76865021504939        3.06550079201662       -0.10089135767295
C            3.08882548975438        4.28373606819362        0.50540162459947
C            4.15552680696562        5.03946389318894        0.09586872517521
C            4.96579055239167        4.61831472391708       -0.96615292867809
C            6.07558031773392        5.38391644757190       -1.41590944995748
C            6.83139751477557        4.97195207579444       -2.46302418752752
C            6.54890138101013        3.76634106057694       -3.16011799501373
C            7.32317294236824        3.33287835641689       -4.26795332475368
N            8.36016767997897        4.14793491415033       -4.82355569156149
C            9.52218193208463        3.53492600066458       -5.40378294279418
C           10.09218935772463        4.04245236566788       -6.56559500735954
C           11.22553887432995        3.47490382641125       -7.10232239626865
C           11.83297202979576        2.37733257109559       -6.50231796671911
C           13.10969671140162        1.73201808055317       -7.06329105683895
C           13.57095804650555        2.41436841130948       -8.36587712587687
C           14.23856287529616        1.85613546172660       -6.02367792435706
C           12.84257763895211        0.24565415056541       -7.36442641945321
C           11.25559476324521        1.87052638689667       -5.34378955137089
C           10.12245483161380        2.43490127681844       -4.80296365645393
C            8.12899453637145        5.55114592106087       -5.05983340279529
C            6.93394824633441        5.95890328046329       -5.64736767356633
C            6.68882889392700        7.28847251513067       -5.89907650830653
C            7.63544605379815        8.23636301096070       -5.56780038974264
C            8.82178838839199        7.84942223700059       -4.97564716142836
C            9.08363124976327        6.51771324696421       -4.70347626638103
C           10.35722100182028        6.12752079283050       -4.04134089570490
C            7.02205335337995        2.10380084514151       -4.86136514117613
C            5.97914818820477        1.32735436789474       -4.42702247450598
C            5.17193193132899        1.74085891394688       -3.35855699269245
C            4.06087564810727        0.97615766524045       -2.90986697628151
C            3.29175658667412        1.39787706862254       -1.87595976475110
C            3.56746644575108        2.60686513581819       -1.18163585957214
C            4.66531279739710        3.39474041830318       -1.61369079361243
C            5.46695440420611        2.96613432875192       -2.71263490320196
H            4.31053588446584        0.48552927827518        2.61999971359439
H            3.47996859566970        1.98337018882988        2.21185251585956
H            4.58680204548696        1.24504320619452        1.05107300169020
H            3.49550655262991       -1.62251008497975        1.82647077014477
H            1.63728228123368       -2.93609725610561        0.90132638855680
H           -0.22700975301372       -1.79833392347681       -0.22969141553859
H           -0.20755100136804        0.65165998753928       -0.45125868767107
H           -0.10262165214512        1.75029878811427        2.31442297122279
H           -2.15088899808823        2.95506686279423        2.87792433071506
H           -2.31077391494833        7.18604558335691        1.23497067746487
H           -2.14597774352312        6.69210387146099        2.91785479465655
H           -3.70120933003314        7.26261194783613        2.31200431968168
H           -3.62778158149346        5.72444696802587       -0.40474040103813
H           -5.03538544719583        5.78801669871619        0.65048129632154
H           -4.37470810809454        4.22990020262969        0.15337740044992
H           -3.36458429719623        4.60298629077413        3.76507892520730
H           -4.27563036542466        3.59418861800484        2.63178603742284
H           -4.87117044283115        5.18909927051467        3.07264985191088
H           -1.36158898686108        5.73816462618590       -0.24615412984733
H            0.68041131694372        4.51139906376022       -0.81150296042510
H            2.47861452178142        4.61860358832939        1.32619579804690
H            4.38047266472599        5.97060437631648        0.58695802860741
H            6.30578717684535        6.30615297709257       -0.91069894615448
H            7.66696796511624        5.56625699895725       -2.78204270599907
H            9.63223208516463        4.89173295047794       -7.03992239921225
H           11.64369137712015        3.89596362603917       -7.99924938789387
H           13.80335004969846        3.46577264953044       -8.19785932385627
H           12.80357739986205        2.34739657908097       -9.13680859278194
H           14.47075694174600        1.93744178729502       -8.75433344015850
H           14.43414255783170        2.90277472647664       -5.79110952930175
H           15.16275102895318        1.41477459203847       -6.39640421998687
H           13.97836091275792        1.35037791856805       -5.09462930029949
H           12.02871526534547        0.13855254256777       -8.08124889551718
H           12.56827019837087       -0.29956424013145       -6.46227946987096
H           13.72746165499668       -0.23193399918381       -7.78486686465568
H           11.70756389250530        1.02417124248537       -4.85632090508458
H            9.69422320855483        2.04040007006607       -3.89791280872782
H            6.20489861461313        5.21051078738065       -5.90522387666038
H            5.75997533210601        7.58891240280974       -6.35611987242566
H            7.44755914623093        9.27873163057163       -5.76780954491273
H            9.55775357132434        8.59024449834792       -4.71262218045300
H           10.66946460270691        6.87893297721955       -3.31461790950023
H           11.15726829500626        6.01292814281688       -4.77396994214384
H           10.24861968774714        5.18078051848784       -3.51071501357708
H            7.61316088444041        1.78507720928362       -5.70205923951150
H            5.76060853185187        0.39260184382059       -4.91411947196155
H            3.83321726714793        0.05220830166255       -3.41308514733752
H            2.44879797833696        0.80885402861364       -1.56835884109891
