16
 energy: -2.971494489454 gnorm: 0.000599850151 xtb: 6.5.0 (97a52f5)
C           -1.72274342726289       -1.60024645151853        0.00042624880387
C           -0.48084288776784       -0.78911081848812        0.00120440664845
C            0.77081490037193       -1.37793724976111       -0.00369818863107
C            1.91684237909805       -0.60745162645867       -0.00389756495971
C            1.82165725746749        0.76956059615465        0.00055559274516
C            0.58755678621897        1.37592509377883        0.00483542593076
C           -0.58259944449401        0.61322080027601        0.00473299981216
O           -1.83288885698720        1.20568748691468        0.00705186707747
H           -1.50662959155973       -2.66932715751664        0.01396860599208
H           -2.31927659823368       -1.38524551110035       -0.88683522794498
H           -2.33275195928443       -1.36587559941860        0.87355329044008
H            0.84545780735832       -2.45204023270897       -0.00760526263814
H            2.88495469326279       -1.08105917148097       -0.00743672511350
H            2.71662730938094        1.37036046168513        0.00070094038721
H            0.51137841939215        2.44883842545315        0.00810126700963
H           -1.73579678696086        2.18334095418952        0.00091232444054
