43
 energy: -8.711976928850 gnorm: 0.000671787035 xtb: 6.5.0 (97a52f5)
C            3.65947232706327       -1.06260710841032        0.91576560031652
C            2.44053801907490       -0.54390101880669        0.25011732512223
C            1.24420800078154       -1.23247066215039        0.31147210742671
C            0.10729965927812       -0.73319325127667       -0.29160404091856
C            0.15530275890114        0.46865779244670       -0.96721309399202
C            1.33276127801089        1.17325218216089       -1.03273809207624
C            2.48767692792966        0.69040131861370       -0.41877030385842
O            3.70263441567282        1.40600436176809       -0.47034245052456
C            3.69957714276623        2.75223722352069       -0.12796091021143
C            2.67715496991659        3.34555258497282        0.60044551820622
C            2.71088179416686        4.68691874214937        0.92810911823893
C            3.76632016341305        5.48957468780463        0.54798553268241
C            4.83973299609966        4.92732081008618       -0.18326896891715
C            5.94375934119896        5.72040641526033       -0.57820346182637
C            6.97098361965936        5.14809926824203       -1.28947434340276
C            6.93922880614860        3.79911081811005       -1.62739595606239
C            5.88084834180801        3.01692651847717       -1.25328463140772
C            4.81345689141530        3.55787249353653       -0.52489869483125
C            5.97992567525184        7.14101015134727       -0.22274186394740
O            6.92494546877233        7.84332130299073       -0.53380245407570
N            4.89366434429702        7.66587191002872        0.48790615914143
C            4.94553302056138        9.07301989699432        0.84615643126618
C            3.75944237529825        9.85366852136787        0.31194181370172
O            3.86004581662114       11.23090719610339        0.61156688457158
C            3.78426861180517        6.90913146425104        0.89082019970580
O            2.85886312391793        7.41695243244912        1.50061397828569
H            3.79875118589060       -2.12421894005800        0.70981245276369
H            3.59757450235744       -0.92796887636312        1.99586512753582
H            4.54378451074058       -0.53178278061552        0.56142176387050
H            1.20697702107795       -2.16891033063487        0.84075296694959
H           -0.81768455563129       -1.28290423434482       -0.23628363766875
H           -0.73057123401416        0.85492438654238       -1.44359191963508
H            1.38429804200436        2.10602952574250       -1.56559783200333
H            1.85395805229549        2.73665082881698        0.92673201363836
H            1.90959245269584        5.13388874639679        1.49173650942957
H            7.80187691779248        5.76887430030000       -1.57892133615823
H            7.75401839507483        3.37038476588013       -2.18678197385505
H            5.84740091251053        1.97283862072349       -1.51181187956785
H            5.87540934827693        9.49319945673754        0.44834710077874
H            4.99482766992882        9.15396388045708        1.93576626284418
H            2.83136525228471        9.45990851012580        0.74962979180737
H            3.68970696236596        9.72743875330494       -0.77612867933710
H            3.08698867452051       11.73087733495056        0.26558186598743
