48
 energy: -9.652215683143 gnorm: 0.000540687000 xtb: 6.5.0 (97a52f5)
C            1.28746672329873       -0.21196399013441        0.24535415024641
C            2.76316115724858       -0.23172614282762        0.03184962154025
O            3.51365346530066       -0.24534485981921        0.98292399085966
O            3.17839898052023       -0.21103701134700       -1.26429971674674
C            4.58330837875432       -0.26276697082203       -1.31178648762511
C            5.14271361576368        0.26223579981904       -2.61814928884017
N            6.59437351601576        0.26163516819904       -2.62597049378724
C            7.23958443028388        1.46627311359010       -2.92403019752622
O            6.60273023764905        2.47727443435532       -3.15800052530864
C            8.70415917948956        1.47271392786698       -2.94456133611675
C            9.38739933665759        2.62186474820495       -3.25656112777299
C           10.77566239402140        2.63248870630909       -3.29271630717045
C           11.48388039481625        1.49927947085947       -3.00464661509782
C           10.83630442608792        0.30275305679178       -2.65928013270918
C           11.54828970908583       -0.90496539070419       -2.34552572382576
O           12.94108796766461       -0.99710521002507       -2.25834322526795
C           13.71404786842279        0.07945841177755       -1.76781521823007
C           14.80631944476535        0.51505516079357       -2.51705316103747
C           15.57012178781507        1.57656930535934       -2.09825722699227
C           15.26523560147259        2.22014772358023       -0.91752884220306
C           14.20214512406878        1.78802790188326       -0.15090243574798
C           13.42545643690316        0.71503678084624       -0.54669800637720
C           12.30317292977057        0.24463129211382        0.30234087524665
C           10.81926214784462       -2.06531230185806       -2.11604495256816
C            9.44000521283361       -2.06871958459939       -2.11912510490034
C            8.72836443567148       -0.91537561837112       -2.36707373543780
C            9.42118397703607        0.28657340721468       -2.65065212187296
C            7.26855108597136       -0.93542406254581       -2.35163444395127
O            6.66016033242625       -1.96102530486707       -2.09926030621841
H            1.04973208355262       -0.54138492250932        1.25567506408097
H            0.79159851673639       -0.87359628764898       -0.46329647135690
H            0.89613692984827        0.79499409417943        0.10963660887602
H            4.88228345770298       -1.30866573711945       -1.15880520723060
H            4.97409228885513        0.31400403755403       -0.46264271426546
H            4.79937826248693        1.28844426050769       -2.78713764518263
H            4.78805536904044       -0.34260405157211       -3.45759064517770
H            8.82203474882973        3.51062884169731       -3.48109003198321
H           11.29444401642702        3.54044689535965       -3.55197045053682
H           12.55593787285421        1.51786134202143       -3.05423575516800
H           15.02903930890874        0.00507214171997       -3.43738960443425
H           16.40641994791189        1.90644239998305       -2.69212893960317
H           15.86249230646474        3.05463541051305       -0.58930739303164
H           13.97307983420342        2.28546964400285        0.77564872816719
H           12.51115452951043        0.41217407432442        1.35934489531825
H           12.13626471539765       -0.82365321968119        0.16418907407532
H           11.38006845342241        0.76771531629044        0.05174339964264
H           11.36310198941667       -2.96969759062155       -1.90949794985634
H            8.89095507075972       -2.97420861064004       -1.92210686689021
