14
 energy: -2.594765248835 gnorm: 0.000732452461 xtb: 6.5.0 (97a52f5)
C           -2.83779075952137        0.32349600782733       -0.01287692486409
C           -1.35821685962549        0.31230681539561       -0.00569650328088
C           -0.62830073890206        1.47973898520294       -0.00115447753125
C            0.75054612370894        1.39087976426873        0.00591931625045
N            1.31435567283283        0.19524950999987        0.00981357200901
C            0.56742352832981       -0.89222356196919        0.00249689349332
C           -0.76399557242558       -0.87688584247998       -0.00540456155277
H           -3.23840134349016        1.33792145220790       -0.00764493428996
H           -3.21941587088965       -0.20364714812221        0.86191040306075
H           -3.21095307591574       -0.19123101897756       -0.89864259891991
H           -1.12409848715031        2.43504345203496       -0.00250625257262
H            1.35784804172662        2.28358189126621        0.01079004683894
H            3.93427598878433       -5.76235559144178        0.03152160477403
H            1.02502335254009       -1.87154471521308       -0.00128558341334
