17
 energy: -3.124972777154 gnorm: 0.000449414101 xtb: 6.5.0 (97a52f5)
C            2.00792388183658       -1.36121689176208        0.00704047511967
C            0.68242284200044       -0.68042838775511        0.00108529569584
C           -0.49347473276384       -1.40455182298024       -0.00240517633708
C           -1.70060414105243       -0.74737226839843       -0.00754020902295
N           -1.83632877103596        0.56510014951907       -0.00936967745158
C           -0.70707519920864        1.25031181153569       -0.00608419478873
C            0.56605724180800        0.70519142756381       -0.00109268496050
C            1.76681970888604        1.58671857293790        0.00075036688497
H            1.89657708448090       -2.44623773368620        0.00502316041767
H            2.58258221724740       -1.08958665108428        0.89332292231666
H            2.59185042934555       -1.08725422293573       -0.87242700946842
H           -0.45850378126081       -2.48057386211899       -0.00138556211442
H           -2.61494479885729       -1.32140586936131       -0.01040671366284
H           -0.80548003855762        2.32421475219824       -0.00809224091166
H            1.48637438200387        2.64069453010782       -0.00154543062738
H            2.38401968967057        1.40735404598590       -0.88030293785852
H            2.37952398545723        1.40984242023394        0.88542961676927
