211
 energy: -42.887527378732 gnorm: 0.000957527079 xtb: 6.5.0 (97a52f5)
C            5.00488333632863        0.39459559754693        4.26682958812360
C            5.84834466858390        1.58610031380852        4.50927639997689
C            6.17746397131930        2.43990250837419        3.51520059414617
N            6.96603819483878        3.55318640610672        3.73330496091285
C            7.29720469063599        4.47238379583076        2.64618663018515
C            6.64443195540779        5.83096304448398        2.84142987916700
C            6.93223499647645        6.80562461162194        1.70253677239510
C            6.25827860239325        8.16387336123350        1.89196349902467
C            6.45065969464187        9.09173339180372        0.69458918309067
C            5.72050820042091       10.41986747896776        0.83691155526691
O            5.79061738857602       11.18399412730558       -0.36359041024124
C            4.83337379450274       12.19792713401016       -0.46996591256190
C            4.16713225531511       12.77331768872207        0.61757831552815
C            3.20755110853613       13.73536685816770        0.42593793161628
C            2.85587383765649       14.16217860872136       -0.85890887580531
C            1.78231894733121       15.12370522206340       -1.04424781688900
C            1.06631001200239       15.23924108554867       -2.17726122503795
C           -0.05315767551501       16.14062829623428       -2.38101898271128
C           -0.25723898857561       17.28214947603538       -1.59806718743976
C           -1.34153610730021       18.09890965879226       -1.81229710054477
C           -2.27250739425680       17.80079579606112       -2.80554356671224
C           -3.45886412543962       18.63488144341915       -3.02206683994107
N           -3.50513478994722       19.82129136568602       -2.43681336634761
C           -4.60885706125858       20.51234136844619       -2.67970711229612
C           -4.72572147539098       21.84442140728253       -2.07947533230023
C           -5.92022344525586       22.55464393243657       -2.17211512344043
C           -6.03740623282628       23.80748282673449       -1.62546144777929
C           -4.95813249011272       24.41182416357885       -0.97309731133190
C           -5.11489573598974       25.74713984403646       -0.42736655500238
C           -4.11210375546683       26.55978039454725       -0.04846460144565
C           -4.29194618113082       27.90402066428446        0.46899341437682
C           -5.52759175986532       28.36324474807356        0.93561578689005
C           -5.67488699315391       29.64690249286945        1.39347001131527
C           -4.60192862103832       30.54387902017399        1.40113015039073
O           -4.85209660127396       31.84072170080238        1.85449315109913
C           -3.82616285000860       32.78742415467175        1.57446759398744
C           -4.29159405507198       34.20877231456826        1.85485704499326
C           -3.25568862939515       35.26996554162211        1.49113649433768
C           -3.76082008475094       36.69238947875350        1.72804918082905
C           -2.75779256751526       37.76422419590275        1.30893691780000
C           -3.28837020219997       39.17789810943827        1.48443831734390
N           -2.34631176977750       40.18087743871102        0.98909873503815
C           -1.75984053928471       41.09953474302215        1.83850492336214
C           -0.90298087185800       42.04603742203354        1.39601198146121
C           -0.28187670862145       43.02825320050941        2.31235220188280
C           -0.57980573065898       42.09584281462077       -0.01509205520744
O            0.19292141754580       42.93442644781300       -0.46076023332498
N           -1.18472846998620       41.15337890648022       -0.83187742909624
C           -2.06531085468277       40.18557950415055       -0.38236161829581
O           -2.56886385776013       39.37190800805401       -1.13948141726668
C           -3.36036458685988       30.07913873346646        0.95416855307029
C           -3.21112128913062       28.79111830093561        0.50478755280984
C           -3.76179304221677       23.69270990801310       -0.87734165447748
C           -3.65137031021988       22.43392404054968       -1.41640895449614
N           -5.62310007026620       20.09953868146128       -3.42498824608672
C           -5.46898191353304       18.89702245614188       -3.95388576732913
C           -6.55805821288338       18.36685250748084       -4.77770559742713
C           -6.51969808652903       17.04986248329735       -5.22969672626780
C           -7.54085290792646       16.53753038843312       -5.98881999444095
C           -8.64135824587597       17.32596039808494       -6.34019153397438
C           -9.70430492620436       16.74745591362133       -7.13832593628861
C          -10.68219406350167       17.43719840373405       -7.75371528537145
C          -11.74749585847225       16.84176230694165       -8.53648862890351
C          -12.03547809881533       15.47307282940137       -8.48604021721243
C          -13.05230036153197       14.93827058773979       -9.23528450532499
C          -13.82442501389257       15.74182077504114      -10.07395628222641
N          -14.88113528002903       15.17900141461167      -10.85460720314259
C          -15.65305902029619       14.08753172100840      -10.33307721816158
C          -15.99391922905567       14.04381268785532       -8.98286501141289
C          -16.72558821674647       12.99912456744586       -8.47685499492292
C          -17.14476595099973       11.95724826848949       -9.30142018149516
N          -17.90478581359057       10.86458817287870       -8.76729577733078
C          -18.86377825943236       11.10502153949626       -7.72772970377411
C          -19.64615613934887       12.25709399607123       -7.73519995030407
C          -20.55907509981700       12.49237361181517       -6.73251851315981
C          -20.70754578349993       11.58294397923290       -5.70385364866220
C          -19.93926066914440       10.43554711243930       -5.68214953214465
C          -19.02603003944443       10.19749206649833       -6.68392648820025
C          -17.68242085010822        9.53118338970300       -9.24541564319300
C          -16.40733279132271        9.10934839762390       -9.61369983928043
C          -16.19479846998146        7.82635436238236      -10.06423827801127
C          -17.25053463138522        6.94075852465418      -10.15580855441002
C          -18.52109407832787        7.34368263616396       -9.79465801425889
C          -18.73623902583125        8.62605949946156       -9.34371568133381
C          -16.80710292988011       12.00264670631078      -10.65277136081663
C          -16.07588222333139       13.04845486242280      -11.15937915779007
C          -15.16699588427780       15.69725465215004      -12.16117884901941
C          -14.13729107884493       16.12913804934862      -12.99451301973707
C          -14.40735902009109       16.62487871791423      -14.24534459956457
C          -15.71776552571768       16.70702839128822      -14.71154970597725
N          -15.99944802841808       17.22945046197667      -16.01714922086403
C          -15.10494001973064       16.95872239512270      -17.10501489043064
C          -14.46276665343903       15.72734856888167      -17.20880655404754
C          -13.60113043360704       15.47001963448832      -18.25069948501308
C          -13.36429197869160       16.43648278664444      -19.20827539874647
C          -13.99337246772392       17.66264831589883      -19.11972460584118
C          -14.85545082485618       17.92248625153012      -18.07882120722279
C          -17.16581273812973       18.03680639161032      -16.22836872300167
C          -17.60388907694181       18.92413400593091      -15.24846809294866
C          -18.72132899341573       19.70101638160361      -15.45312436806568
C          -19.42265728278969       19.60624210791888      -16.63900317615141
C          -19.00152665205809       18.73058151757464      -17.62037163316633
C          -17.88412271007895       17.95289372914992      -17.41843843211455
C          -16.74747425609551       16.27253088542678      -13.87913358800288
C          -16.47726103424658       15.77634526318733      -12.62800793658265
C          -13.54244499776556       17.10699955532081      -10.12608615739500
C          -12.53214678998636       17.64582034361257       -9.37056418945836
C           -8.67464156875315       18.64911220512685       -5.88541930926246
C           -7.65514615651525       19.15566649471818       -5.11721486019736
N           -4.40706522737251       18.12563882241632       -3.79214280008185
C           -2.06862157422119       16.66852100392398       -3.59060598809072
C           -0.97839049939356       15.86118910317487       -3.39107272405877
C            3.54678619237434       13.61100954204714       -1.94279392256187
C            4.51564320273764       12.66071837656900       -1.75085927446568
C            7.45218917494624        3.85654252752270        5.01014936296001
O            8.12958959010271        4.85047681468375        5.21483725617068
N            7.11620749616732        2.97811246210126        6.02477298269864
C            6.33444040037417        1.84707655066214        5.84872102479391
O            6.06028941191662        1.10066300081043        6.77966798579711
H            4.02431752606074        0.68043979671364        3.88473659438126
H            4.85702316242554       -0.15870632180712        5.19562660252001
H            5.47367764119914       -0.27546587923894        3.54538961404924
H            5.82037310804077        2.25787487791597        2.51840181916113
H            6.99540025825155        4.02893287307615        1.69297513284007
H            8.38661527866287        4.57178609851597        2.61355489571319
H            6.98286474076714        6.25470821390248        3.79498676965677
H            5.56237216907250        5.69803672165480        2.95554262207561
H            6.60389965490170        6.36325812097206        0.75439101379207
H            8.01497476000372        6.94049320181299        1.59429840923414
H            6.63591295513228        8.64446986182595        2.80228378245455
H            5.18625582749388        8.01697734650863        2.07030653191158
H            6.09807187602407        8.59521902445800       -0.21646266817297
H            7.51686413893187        9.27694187641462        0.52366141858007
H            6.14377073622257       11.01666769794327        1.65203676279433
H            4.66308646253516       10.24563558336585        1.06519110832142
H            4.41749281756485       12.46070235319350        1.61496062653125
H            2.69379972941365       14.15744856749900        1.27253395999024
H            1.50551323932939       15.71997832014066       -0.19358374772981
H            1.28321923561801       14.56224840349691       -2.98416064444342
H            0.45327444958875       17.52848376854128       -0.82900706884832
H           -1.49630497638577       18.97625782292837       -1.20906141036459
H           -6.75075056993902       22.10019434873631       -2.68326203506127
H           -6.96650642311094       24.34505853560822       -1.70681258360077
H           -6.12134500762151       26.12087333044100       -0.37508836065742
H           -3.09918104741039       26.22470856985515       -0.17806641969245
H           -6.37142034278391       27.69682379984942        0.95028191536859
H           -6.62795305012417       29.99676701381824        1.74854135786396
H           -3.54372775587818       32.68160397434282        0.52114371763964
H           -2.95095498807879       32.53688166701971        2.18359054765821
H           -4.56886973131972       34.29706524433132        2.91114983154248
H           -5.21984314432278       34.39135173111453        1.30180919397783
H           -2.96695740151327       35.15475803554862        0.43952105937288
H           -2.33423656927559       35.10190072391218        2.06105133503746
H           -4.02216002815912       36.82235348242673        2.78489888719152
H           -4.69970267871240       36.84094958338250        1.18128113403278
H           -2.48119394985546       37.62172641340133        0.25695850810429
H           -1.82271028941879       37.64946845626504        1.86900307240169
H           -3.52038711232811       39.38021844953807        2.53402273369883
H           -4.22305353195106       39.30409553310626        0.92912472471105
H           -2.00510191514198       41.05132655408892        2.88340660144273
H            0.38655069181145       42.53460929467369        3.01846564234962
H           -1.03963163741082       43.57174194090516        2.87788892024138
H            0.30251088765715       43.75483012606554        1.74549949939346
H           -0.97146194201981       41.17912056504152       -1.81744742924818
H           -2.51042112772623       30.73657073673200        0.96926882484722
H           -2.25004213193444       28.45232576356880        0.15770418418183
H           -2.92271000323954       24.12553645625237       -0.36246823724947
H           -2.72972445274667       21.88389837338710       -1.34108149262149
H           -5.67419084084502       16.43937899204845       -4.96508481007019
H           -7.49952857099682       15.51656092201315       -6.32751066545421
H           -9.67454125998192       15.68041127096381       -7.26364050837879
H          -10.66970782050604       18.51036772938409       -7.69766154875495
H          -11.46494619997038       14.83317355156018       -7.83705192920802
H          -13.26105830611756       13.88366053245518       -9.19386437827311
H          -15.67952619290038       14.84890276471839       -8.34224871346734
H          -16.97722934417019       12.96712259184446       -7.43139941961384
H          -19.53142429678724       12.95768313036811       -8.54365197925911
H          -21.15956602409205       13.38704863133887       -6.75033090908496
H          -21.42193500691861       11.76847509905485       -4.91866839131088
H          -20.05361628282508        9.72664558272305       -4.87855731525792
H          -18.41599061814377        9.31147804645077       -6.66625596068451
H          -15.58628173230097        9.79932927822286       -9.52829275243031
H          -15.20268974195557        7.51158429896733      -10.34351720722166
H          -17.08267404685778        5.93620059029477      -10.50786525837870
H          -19.34544190404431        6.65326580887384       -9.86643999327697
H          -19.72505655344033        8.94899017707506       -9.06900915764531
H          -17.13638614080089       11.20602303552584      -11.29646312643752
H          -15.81112796687635       13.07371788826272      -12.20176610843251
H          -13.12242275127894       16.05943291690360      -12.64442891149901
H          -13.60839415197697       16.96638820415225      -14.87966409281553
H          -14.65858488838746       14.97501200449364      -16.46507286426724
H          -13.11133794331326       14.51261421157413      -18.31991325821669
H          -12.68923540317715       16.23410696713823      -20.02350615109622
H          -13.80751085543087       18.41766720784691      -19.86587772984831
H          -15.33949257127798       18.87991451211767      -17.99839430184120
H          -17.04699373842703       19.00147644527623      -14.33117624481099
H          -19.04828094453275       20.38549531250023      -14.68765402777488
H          -20.29738215509640       20.21511538407320      -16.79826697211319
H          -19.54924545773894       18.65499476519703      -18.54537384410404
H          -17.55654200364205       17.26160411427156      -18.17496160768990
H          -17.76055878178676       16.32456206844043      -14.23739479728374
H          -17.27703422724846       15.44896318818825      -11.98733289207129
H          -14.14263116879513       17.73558727042381      -10.76013661082687
H          -12.32815326277396       18.70156974212764       -9.42020936640101
H           -9.51904806632077       19.27119923702807       -6.12264536690241
H           -7.68776755154635       20.17100398418033       -4.76273414710600
H           -2.78776300093398       16.43795953224494       -4.35699431915243
H           -0.83675919561126       14.98683100984573       -4.00286397651220
H            3.32257496746022       13.94853890521830       -2.93924275519982
H            5.04020627620470       12.23483300334371       -2.58759683585601
H            7.45852323692521        3.17353940159734        6.95296632896492
