53
 energy: -11.707681143096 gnorm: 0.000899010039 xtb: 6.5.0 (97a52f5)
C            1.56213896340090       -0.82543731458031        0.95155852276798
C            2.95596819310957       -0.42980422142556        0.65201369143486
N            3.94047795175408       -1.26976280440769        0.40931874288419
N            5.02426191035661       -0.52127614486457        0.14924916974485
C            6.31529799518436       -1.06772821793374       -0.19922248226268
C            6.58306840197131       -1.43803878300136       -1.50769002320662
C            7.83987175700444       -1.87613703816484       -1.86148241947205
C            8.84017409604343       -1.94498927455783       -0.91233144243230
C            8.57796658756984       -1.58656728732266        0.39488729177737
C            7.32030147270811       -1.15362750242342        0.75212819070252
C            4.73720943461561        0.83948985645921        0.21421376290015
C            3.40886100019333        0.90974847978600        0.53420460307359
C            2.72164307818962        2.18969751720673        0.68360334882320
O            1.53881155318806        2.19392881834680        0.98785682204057
O            3.46664866582005        3.33777695226131        0.46747042825622
C            4.82416753231315        3.25404882476351        0.12791429478134
C            5.54282278820388        4.43008377113305       -0.09340182058551
C            6.87180848679714        4.39558463268501       -0.43219788138168
C            7.54387122391121        3.17964814634170       -0.56061483875802
N            8.93133805188876        3.11895640985716       -0.92584967411076
C            9.99186121638834        3.82185378632631       -0.32224176737806
C            9.99899704248116        4.76336329573003        0.70639469020831
C           11.20079216513733        5.28998683379778        1.10963500652111
C           12.40009392238634        4.89431180979160        0.51049739002674
C           12.41238619290053        3.96158692300918       -0.49737449786926
C           11.19856191588429        3.41530497032831       -0.91781760295880
C           10.87355616158800        2.42498895229383       -1.91492423486649
C           11.66085870796870        1.68178109572480       -2.79616475566247
C           11.04307656379544        0.79875534126377       -3.64748768010586
C            9.65385439800741        0.64539473542279       -3.64017516640508
C            8.86676446338007        1.36690651915719       -2.77827802275923
C            9.47821162040798        2.26122855287507       -1.89996318627301
C            6.85005365497295        2.00876541014814       -0.34143242663978
C            5.50368631232092        2.02645264160300       -0.00403056101216
H            1.53661722646208       -1.59205411955006        1.72572030869227
H            1.07657852666301       -1.22215726842051        0.06007515628404
H            0.98720685911233        0.03509609499960        1.29763196348981
H            5.79706217688547       -1.36574784771387       -2.23906874657833
H            8.04370683274967       -2.15999432993908       -2.88076609822222
H            9.82543884391792       -2.28001923070899       -1.19182337959109
H            9.35825884601969       -1.64265306875561        1.13600770582687
H            7.10414729938780       -0.86171748817654        1.76511934335583
H            5.02271752038020        5.36649059797895        0.00322897347460
H            7.41050793024597        5.30780734360089       -0.61888374501311
H            9.07467467954155        5.05479439111394        1.17149502426703
H           11.22102265348123        6.02003522075187        1.90189638454525
H           13.32831796829185        5.32628169046116        0.84614304679108
H           13.33127013279196        3.64795384609416       -0.96010775367818
H           12.72897605468584        1.80771582114447       -2.79774294782163
H           11.63626678373212        0.21864047573049       -4.33476296234495
H            9.19415596139996       -0.04818202000390       -4.32471061157209
H            7.79715430805489        1.25920118629884       -2.77403913662855
H            7.36802591437330        1.07377301747734       -0.42932799708813
