6
 energy: -0.787410770162 gnorm: 0.000933970395 xtb: 6.5.0 (97a52f5)
Cl           0.94811342945838        0.00961115399555        0.05726507563935
C            2.67976405896927        0.00998329925029        0.05764408392070
C            3.34129773203140        0.81105127402706        0.87689558977812
Cl           2.47593119826697        1.85968469012576        1.94933306664724
H            3.18637849129508       -0.65337685191585       -0.62077458905721
H            4.41632508997889        0.83599643451719        0.90240677307181
