5
 energy: -0.353915306994 gnorm: 0.000062965529 xtb: 6.5.0 (97a52f5)
Cl           1.01956498734360        0.08690820048635        0.04790964605284
C            2.77804635065971        0.08661547356645        0.04831964372118
Cl           3.36397371885122       -0.58994403837925       -1.46535583235799
Cl           3.36396832716166        1.73586782819101        0.21837601571952
Br           3.41543661598381       -0.97055746386455        1.50864052686446
