9
 energy: -0.928344339448 gnorm: 0.000774538935 xtb: 6.5.0 (97a52f5)
Cl          -0.10978491768822        1.54568023860876        0.00647938002460
C           -0.48073552443103       -0.14575269857094        0.00345440004357
Cl          -2.13906393306995       -0.64874613281750        0.00768208772166
C            0.51237122364543       -1.04485068124466       -0.00184603981503
Cl           2.17414105776838       -0.46184395627898       -0.00357895536563
C            0.27284482482730       -2.49619771866867       -0.00584990672161
Cl          -0.63318345301096       -2.94840084099145        1.43408091620552
Cl          -0.64468137672811       -2.93873003080790       -1.44149088634090
Cl           1.80835209868716       -3.35752817922866       -0.01494099575219
