10
 energy: -1.206376626323 gnorm: 0.000794819804 xtb: 6.5.0 (97a52f5)
Cl          -0.05924012279441        1.59311325801320        0.02351613844948
C           -0.48279836161967       -0.08086911775223        0.12969984083425
Cl          -2.12910396161836       -0.52578278792959        0.45166184850108
C            0.46978989317087       -1.02276256149028       -0.00789199330901
Cl           2.14372293920612       -0.50702054595814       -0.14043101730807
C            0.20091283531891       -2.44401948712641       -0.03857263890690
Cl           1.03371667612141       -3.45711844465617        1.13055759520603
C           -0.63427791634681       -3.03142781647084       -0.91655291655386
Cl          -0.97413370102160       -4.72248071310736       -0.78203971818371
Cl          -1.34377828041647       -2.11912178352232       -2.21101713872925
