8
 energy: -0.715458635973 gnorm: 0.000866563946 xtb: 6.5.0 (97a52f5)
Cl           0.93216280588605        0.04437290661996       -0.02069667857732
C            2.69047795082752        0.03107912876792       -0.03146378983222
Cl           3.28154085250604       -1.34724011718695        0.88660226764950
C            3.19275207831798       -0.03752358112398       -1.43728496148048
Cl           2.60958856507824       -1.51639674119552       -2.19552577930918
Cl           2.60583323817133        1.35616340115157       -2.34749863771142
Cl           4.95777955184897       -0.03697346851134       -1.43920774570572
H            3.04831495736388        0.94786847147834        0.44811532496684
