5
 energy: -0.408695743561 gnorm: 0.000807742837 xtb: 6.5.0 (97a52f5)
Cl           0.98544460068577        0.05095539872724        0.07877712819414
C            2.73757610030317        0.04509354568874        0.05980646792854
Cl           3.33097689146235       -1.56619118367186       -0.28947243172723
Cl           3.33097685771152        1.17843711380920       -1.13759362870961
H            3.10070554983719        0.34832512544668        1.04110246431415
