11
 energy: -1.505166927206 gnorm: 0.000665592052 xtb: 6.5.0 (97a52f5)
Cl           0.97458693326438        0.02766953842763        0.06191695137120
C            2.71726389528020       -0.01753096066651        0.06621398583427
C            3.46434304561419       -1.14391748235920        0.06917663177084
Cl           2.84154818015876       -2.76598132484303        0.06981161162434
C            4.90411205084323       -0.76212102103092        0.07262446947395
Cl           5.70108541515953       -1.36582224277780        1.52293654086161
Cl           5.70842237978423       -1.36739291217308       -1.37297612562824
C            4.87718418282020        0.72720247904917        0.07172571177085
Cl           6.26688203549729        1.77016122864843        0.07581520193028
C            3.58934305063770        1.13736142182708        0.06775668973779
Cl           3.06876883094026        2.80110127589824        0.06350833125310
