18
 energy: -2.598497674215 gnorm: 0.000513084929 xtb: 6.5.0 (97a52f5)
Cl           1.06977188044221        0.04163965494943        0.14701118107515
C            2.83354540895800        0.03064674105636        0.11261965751465
C            3.32012885467235       -1.37969463222810       -0.24939072294923
C            2.89216017422791       -1.76055513778160       -1.67773509114427
C            3.38806104009881       -0.72169141216378       -2.69957505059487
C            2.89533336895552        0.68973842660473       -2.33281316120190
C            3.32250955562203        1.07154054490957       -0.90445446243122
H            3.17418106157589        0.30051382342594        1.12380433212137
H            2.92629414236998       -2.10330342865856        0.47672743804875
H            4.41286061610426       -1.42745167138722       -0.16405456010995
H            1.79752027026627       -1.81711679752072       -1.72185335952730
H            3.24971894327670       -2.76671606212246       -1.93768631877810
H            3.07335800364943       -0.99327134411140       -3.71684234246947
H            4.48487615782391       -0.72882989466483       -2.72096499839334
H            1.80080758140500        0.71948049422727       -2.40050695425196
H            3.25557382102370        1.43105486543282       -3.05977841251248
H            2.92935645836363        2.06125642957048       -0.63642525439564
H            4.41529266116441        1.15426940046207       -0.85325192000019
