8
 energy: -0.863480309474 gnorm: 0.000324160754 xtb: 6.5.0 (97a52f5)
Cl           0.93507316955363        0.00214102914077       -0.11530623109257
C            2.68774766834892        0.02698957354123       -0.03797619272627
C            3.19425497342164        1.42881513685973       -0.16999825238823
Cl           2.64806399501121        2.38940287720548        1.19667352463911
Cl           4.95560069019861        1.43837207179478       -0.24722268998205
H            3.08603986733942       -0.61244954619657       -0.82987355709338
H            3.00121006685968       -0.39542918955936        0.91932073183232
H            2.80873956926690        1.89251804721393       -1.08358733318893
