32
 energy: -4.501210959368 gnorm: 0.000420597820 xtb: 6.5.0 (97a52f5)
Cl           0.82845319062185        0.03245213850767       -0.10332716792157
C            2.58491407327107        0.02902673045469       -0.12398802569128
C            3.13178704598162        0.26004053052077        1.26895018761965
C            4.66050328241141        0.26855516607816        1.32027671789072
C            5.20954857001175        0.50191051494563        2.72732439551216
C            6.73733356520338        0.51024978600322        2.77760717593832
C            7.28795035677901        0.74352081685612        4.18414725350280
C            8.81573429232235        0.75185880604520        4.23442707472999
C            9.36478512189809        0.98521361564096        5.64147234318581
C           10.89350054594393        0.99372426110371        5.69279348306842
C           11.44037945376397        1.22474075007989        7.08572896543085
Cl          13.19683939873543        1.22132036944055        7.06510284180837
H            2.92434544704816        0.80417685568375       -0.81507819704331
H            2.92434662551021       -0.92771655955981       -0.52785043846549
H            2.73985429317444       -0.50959582631720        1.94551938687601
H            2.73985169928222        1.20687669541862        1.66084949458585
H            5.04694105471256        1.03809477096292        0.64127491600276
H            5.04694356984917       -0.67897554424495        0.92604573773259
H            4.82244586795089       -0.26750088262653        3.40627815462284
H            4.82244590486672        1.44930583157359        3.12154997328660
H            7.12393559966419        1.27961298283292        2.09831224170960
H            7.12393547641824       -0.43721024370943        2.38304307294602
H            6.90134649445304       -0.02584568920526        4.86343745956421
H            6.90134742886653        1.69098274700497        4.57870549414109
H            9.20284238583723        1.52126341600221        3.55546869222705
H            9.20284149465620       -0.19553212777520        3.84019516572775
H            8.97833998226212        0.21567667744495        6.32047350832915
H            8.97834105791479        1.93274374114575        6.03570174707374
H           11.28543632964174        1.76335787630530        5.01622327158375
H           11.28543527806463        0.04688639695834        5.30089810880195
H           11.10093775150760        0.44959100508397        7.77681461197245
H           11.10093736137545        2.18148439134451        7.48958235325112
