14
 energy: -1.829286854471 gnorm: 0.000230528723 xtb: 6.5.0 (97a52f5)
Cl           0.92361425056286       -0.02578032494269        0.06128014312626
C            2.67912901932939       -0.02867447977447        0.05265786929433
C            3.21288699574565        0.42192304781452        1.39493347058857
C            4.74190746841430        0.44330501272467        1.45862644488901
C            5.27566927971161        0.89390376388345        2.80090098297214
Cl           7.03118427506228        0.89101296933066        2.79228616171278
H            3.02222719640518        0.62803610149262       -0.74989809577808
H            3.02222751676344       -1.03662156572063       -0.19107825500423
H            2.81654310604462       -0.23175285860286        2.18160012481208
H            2.81654263185927        1.41786257729563        1.62782988651524
H            5.13825418465747        1.09698107111575        0.67196145584041
H            5.13825443502854       -0.55263414501433        1.22573390040925
H            4.93258036558499        0.23718201746791        3.60345170464336
H            4.93257927483040        1.90185681292977        3.04462420597888
