15
 energy: -1.966892189699 gnorm: 0.000247070802 xtb: 6.5.0 (97a52f5)
Cl           1.02711272464556       -0.05876942778247        0.08567902432998
C            2.78200007579631       -0.05808519565959        0.08486381654378
C            3.30854809298239        0.85318559292979       -0.99759273215639
O            4.73259765392490        0.87898451993909       -1.02823777440360
C            5.24500141270903        1.73506755902003       -2.04514140579120
C            6.75456289830282        1.75101226025174       -2.06408476507268
Cl           7.34055673432228        2.81632669926651       -3.32952495765672
H            3.13471087009710       -1.08015973954058       -0.06476045365495
H            3.13471230029230        0.26357878450929        1.06647230953364
H            2.94925507043121        1.87764634544039       -0.84370436221851
H            2.94925552177379        0.52691210452824       -1.98082545142598
H            4.85376109538136        2.74497201881047       -1.87392647073232
H            4.85375879791287        1.39420270098584       -3.01107633818782
H            7.14966712122072        0.74824284807986       -2.23664157288334
H            7.14966963020740        2.09198292922139       -1.10540886622389
