51
 energy: -11.224078609285 gnorm: 0.000495659178 xtb: 6.5.0 (97a52f5)
Cl          -1.87081609779091       -0.54658684327246       -0.64969761332273
C           -0.17161095129618       -0.26993018265999       -0.69204149840239
C            0.70893339744730       -1.32506607111878       -0.50655442684202
C            2.06321640812716       -1.09837678391929       -0.52173495791242
C            2.57521945614638        0.18655278041895       -0.70947264248878
C            4.03557360622431        0.36652601294906       -0.73291924061865
C            4.66379625220026        1.53377485821046       -0.28964448553170
C            3.89923208571773        2.64272223648974        0.32575625818857
C            3.13314713491519        2.43322915152309        1.47935729927650
C            2.40795045982479        3.45735682077647        2.03706315907129
C            2.43044478414439        4.71776248780286        1.46084211513481
Cl           1.50983751704435        6.00066794198919        2.15643571780323
C            3.18681669779657        4.94644560440644        0.32207517847061
C            3.91158902729725        3.92416135009449       -0.23936325280974
C            6.09681073681214        1.62599533508728       -0.38931731880891
C            6.81166915051438        2.74156724668143        0.05405112952387
C            8.18550627661404        2.79655562169931       -0.05497430266795
C            8.88249654514528        1.74377245298062       -0.60206733538628
C            8.21780791720827        0.60203471039492       -1.04567345695555
C            6.81383859192048        0.54243460612799       -0.93059922749670
C            6.10968563092248       -0.62411736675763       -1.34863565106370
C            6.81629010232317       -1.67835553222949       -1.88168786110757
C            8.21977263016105       -1.66157391248190       -2.03595090264299
N            8.81146337677703       -2.72783232169050       -2.57220125501118
C           10.14164539150986       -2.63680498879533       -2.68331344116232
C           10.85950045021876       -3.71521441875119       -3.24661510490408
C           12.21442811737462       -3.67178585002880       -3.37675184942375
C           12.92548073803025       -2.54772192930337       -2.95025152602469
C           12.26808859352217       -1.48647194761678       -2.40342491542294
C           10.86573260820907       -1.49143142336481       -2.25310011902950
N           10.26348579211182       -0.41858308201927       -1.71446874491871
C            8.94904157812966       -0.51006707883538       -1.61251371931209
O            4.73560980869957       -0.71239938072764       -1.22536672396354
C            1.67241924315136        1.23331207136758       -0.92449413969638
C            0.31820483180612        1.00918616426507       -0.90876689723077
H            0.31449942188351       -2.31519216979486       -0.35393919408744
H            2.75615798494507       -1.91174472727797       -0.39102326859195
H            3.11611726942631        1.45180232781452        1.92059370024670
H            1.81310336606217        3.29740234911148        2.92006118025692
H            3.19086545136419        5.93137580509722       -0.11269318052409
H            4.48581072175070        4.09333182265541       -1.13383497214977
H            6.27966085426254        3.56477342778338        0.49575082816370
H            8.71622733585083        3.66809819075122        0.29088008981954
H            9.95406255475833        1.78188927484035       -0.69093557987478
H            6.27629187551178       -2.55044378543080       -2.19721325522276
H           10.30443219400204       -4.57717380819614       -3.57293586986908
H           12.74188062548309       -4.50573374405552       -3.80963098364826
H           13.99747106553881       -2.52193770226975       -3.05564440219606
H           12.80893759359260       -0.61682688707288       -2.07374538960575
H            2.04743708162868        2.22302058509461       -1.11232314533621
H           -0.37798328502370        1.81570070125889       -1.06439480469297
