12
 energy: -2.136737740314 gnorm: 0.000347033100 xtb: 6.5.0 (97a52f5)
Cl           3.45672717954433       -0.17294652962735       -0.02027973979871
C            1.76270929360910        0.18295390514534       -0.02130775864536
C            1.33198895612398        1.49660850377949       -0.01736969680198
C           -0.02374617623115        1.78014036618185       -0.01538883071858
C           -0.94272850646993        0.75196532844144       -0.01735579089198
Cl          -2.64192770653660        1.10381917577919       -0.01203222815613
C           -0.50842738265601       -0.57263149127672       -0.02174855415423
Cl          -1.66041640805549       -1.86179899584336       -0.02242426278515
C            0.84186011446153       -0.85304583490791       -0.02399939107547
H            2.06141666987767        2.28850447284323       -0.01563075094534
H           -0.37427077723786        2.79821487080042       -0.01184976934012
H            1.18052474357043       -1.87411377131563       -0.02736322668695
