12
 energy: -0.936556710328 gnorm: 0.000569223250 xtb: 6.5.0 (97a52f5)
Cl           0.48911631306715        0.96449243897707       -0.02408618494990
C           -0.22678148383687       -0.56880205955492       -0.03050016533986
C           -1.53139456102880       -0.71552584770607       -0.01992440764401
C           -2.22618984013205       -1.84366513999815       -0.02572828163504
C           -1.78589808445950       -3.08238258590098       -0.04307055845712
C           -0.45314457213967       -3.43699520377360       -0.04680713234776
Cl           3.59196068443029        4.28377016952449        0.12307233766754
C            2.02668439367702        4.79028269913996       -0.01003057735726
H           -3.48575906730949       -6.11069110214963        0.15641048892627
H           -0.94024742941021       -6.39379332047477       -0.03443678408395
H            3.25440895571686        0.87332858407935       -0.02744677907184
H            1.27937469126997        2.89261136441474       -0.01158195539568
