12
 energy: -2.300184211745 gnorm: 0.000144286966 xtb: 6.5.0 (97a52f5)
Cl          -2.08747983035794       -0.01162991423505       -0.02863973521495
C           -0.35910310451064       -0.00465603226019       -0.01624525154059
C            0.33840287853077       -1.20134179469429       -0.01048184931318
C            1.71640063103571       -1.19428104179059        0.00191775018764
C            2.40136338560234        0.00648713450112        0.00832142319828
C            1.70672055307508        1.20168016475259        0.00233795027235
C            0.32871104289160        1.19762958749283       -0.01008785762605
H           -0.21132590753796       -2.12717096511848       -0.01553761567181
H            2.25968042643081       -2.12489818152561        0.00659703431851
H            3.47889047523597        0.01083744486160        0.01788230044039
H            2.24246571332048        2.13665390271787        0.00729381478954
H           -0.22847626371623        2.11898969529817       -0.01500796384015
