39
 energy: -8.241934082884 gnorm: 0.000857630361 xtb: 6.5.0 (97a52f5)
Cl          -2.12096670654253        1.07652711166058       -1.36549861705531
C           -0.61600671191579        0.94864939148293       -0.53191779477483
C            0.06518605629341       -0.24799226923701       -0.49762607544291
C            1.27252860873771       -0.33860405318330        0.17197278402026
C            1.79709061205097        0.76941424982181        0.80695875885979
C            1.12211108018696        1.97333602383860        0.77719076110372
C           -0.09327836743720        2.08355811188362        0.10830116341138
N           -0.81134446461720        3.32765803633151        0.06528858144414
C           -0.63879998963507        4.21526927965185       -1.06975798874125
C           -1.27560959653842        5.41289855120570       -1.17123573124966
S           -0.87510311675350        6.25307664973624       -2.64981973674359
C            0.20699192214205        4.98814275408637       -3.16039861766267
C            0.97054958739270        4.93252328602351       -4.31700287532721
C            1.77434866160361        3.84055223662923       -4.53969766420184
C            1.81929417306730        2.80418383369104       -3.61189620206168
C            1.06627197193394        2.85496326941841       -2.46697613162090
C            0.23296338696657        3.95886086789815       -2.21343822456414
S           -2.38175709784300        6.12486100283011       -0.00544247781879
C           -2.52940931551202        4.76657637847748        1.09994519196769
S           -3.66844626437412        4.81319680611529        2.42350893424337
C           -3.19391032449074        3.23388994629174        2.98260863784666
C           -3.68196524940639        2.53196714915324        4.07472543070794
C           -3.17351254369205        1.28649002951281        4.35552885388113
C           -2.18046369289683        0.73843673382044        3.54923850120980
C           -1.69522256212023        1.42880019597348        2.46811933856770
C           -2.19624269699799        2.70526957516477        2.15705815821290
C           -1.82410612718130        3.60389066537820        1.06713281067449
H           -0.35465131382775       -1.10359132164795       -0.99822773412193
H            1.80368321713107       -1.27572698238568        0.19654682030997
H            2.73697068058723        0.69484449662480        1.32830406644409
H            1.52224141976492        2.84194121310568        1.26948453410814
H            0.92379136768745        5.74405216841092       -5.02250926645400
H            2.37107155229255        3.78554898474850       -5.43516745533797
H            2.45228878145645        1.95203621527727       -3.79736212938589
H            1.11620315472537        2.04681316853698       -1.76495499215515
H           -4.45010492297657        2.97189338836442        4.68683628739823
H           -3.54382775214792        0.73244069823928        5.20192924148594
H           -1.79018403654238       -0.23964346843614        3.77793225036061
H           -0.93216338057256        0.98799562550747        1.85867860846061
