11
 energy: -2.148823732920 gnorm: 0.000568540376 xtb: 6.5.0 (97a52f5)
Cl          -2.06269273686350        0.06268060472026       -0.00674496665995
C           -0.32767633737794        0.00434710135473       -0.00428185767301
C            0.35073731510156        1.20741320695380       -0.00324452222821
C            1.72286258128238        1.20409557523835        0.00021267956336
C            2.36050569352201       -0.01199719780012        0.00241398091796
C            1.60026831704603       -1.16068365507616        0.00082487425304
N            0.28040127089979       -1.18442943892183       -0.00267228044671
H           -0.20559190384729        2.12969116550610       -0.00499594406454
H            2.28127717813145        2.12575405237073        0.00135823657082
H            3.43657490261682       -0.06736943401048        0.00521910583227
H            2.09192371948867       -2.12173198033538        0.00214069393496
