8
 energy: -0.789290873815 gnorm: 0.000574874652 xtb: 6.5.0 (97a52f5)
F            1.07880060081245       -0.21254935160788        0.07218016317077
C            2.40834059847896       -0.06541483917362        0.06110948723394
F            3.01730134994229       -1.11839416008838       -0.49707324573345
Cl           2.80550326646197        1.38462242165425       -0.88092588770976
C            2.91278575305600        0.13156549769792        1.47765367960190
F            2.59032373119020        1.34413949915831        1.92503027553716
Cl           2.18200956195651       -1.09469020642111        2.50673496256526
Cl           4.66367513810162       -0.06357886121950        1.50064056533419
