8
 energy: -0.804033473949 gnorm: 0.000576513050 xtb: 6.5.0 (97a52f5)
F            1.12280965257425       -0.35476937111062        0.72121965971075
C            2.26245629356517        0.02729925080644        0.10769955811969
F            3.19724615171074       -0.94507854012666        0.16087896091437
F            1.96980626602013        0.35030469580180       -1.30727863639126
C            2.79257448669597        1.29506769646695        0.74223332039799
Cl           2.67438373816908        2.36765060111176       -0.56077865207245
Cl           1.78988081819268        1.82323350325461        2.07968296673623
Cl           4.46091259307200        1.11884216379573        1.25247282258469
