51
 energy: -9.847279237712 gnorm: 0.000863070998 xtb: 6.5.0 (97a52f5)
C            2.76001454048559        1.78295124168333        0.14786405547566
C            4.01308464789623        0.98677982944536        0.28410661169376
O            4.43304600912389        0.75133338431232        1.39453381472698
O            4.57487229612604        0.60771473198857       -0.88766855762919
B            5.68134551423686       -0.34929406628959       -1.02282512743684
O            5.18033365175504       -1.72206119280120       -0.90670995804942
C            5.95142581702316       -2.83152839727010       -0.91113215835033
C            7.42780037655886       -2.65099461113577       -1.01507755648070
O            5.51825369372898       -3.95925882477330       -0.82203828430332
O            6.67368385332168       -0.06781708751831        0.02328268015960
C            7.37385341174431        1.09016537126392       -0.11755753395088
C            7.80954645250276        1.74783964986401        1.06548705638607
C            7.31262957306718        1.35358584312276        2.26040602475475
C            7.63463769281874        1.90320558751625        3.54830936355009
C            6.93549369996725        1.46153600275943        4.67860020106639
C            7.21899827256643        1.96716766924722        5.92479922933939
C            8.20459305659616        2.92334367217609        6.07797206188884
C            8.90692732422077        3.37305067157746        4.97613783590795
C            8.62931306207487        2.87298599024971        3.72575454469972
C            7.63409231652200        1.59179759001200       -1.38505034452157
C            7.14164700419058        0.92506192945835       -2.50084819350270
C            7.44788536024847        1.31427468977555       -3.83745086744057
C            8.26315954272572        2.33638666797619       -4.19759732182958
C            8.56814988242987        2.72151381639831       -5.54992745010246
C            9.46359975733907        3.77395793422606       -5.78243141865624
C            9.78080838410288        4.16374190793691       -7.06185435544476
C            9.21396914896078        3.51882781501019       -8.14414924211811
C            8.32707869306895        2.47942675342887       -7.93981920289293
C            8.00554678442072        2.08229736726384       -6.66327672282927
O            6.32976125098820       -0.15571428652905       -2.33575331607851
H            1.95423847970056        1.31603788514977        0.71198750871967
H            2.46224173614402        1.84271028682607       -0.89798588119707
H            2.90681239658251        2.79261204419375        0.52767708114659
H            7.67058309734257       -1.64364287966043       -1.34894820285845
H            7.84465712031551       -3.36320480943503       -1.72518610165176
H            7.89558603137752       -2.81421428596750       -0.04566037121291
H            8.48309937063183        2.58044889326166        0.98887490259140
H            6.55411069216337        0.58759850846340        2.22540674185348
H            6.16179791930349        0.72280479473589        4.55762081019915
H            6.67042108212120        1.61825829167478        6.78421876048001
H            8.42520367620650        3.31805251010177        7.05586189434653
H            9.67625242799691        4.11771124003008        5.09828655955778
H            9.18645827468483        3.22402269456978        2.87595365761648
H            8.21715746967110        2.48605588399202       -1.48843179789142
H            6.98219847127033        0.72211561316790       -4.60189485659366
H            8.73420844597757        2.91074105723323       -3.42177651017074
H            9.90877464244107        4.27764641014121       -4.94174608022627
H           10.47363825704815        4.97368762778671       -7.22135238178956
H            9.46424201314032        3.82574402553809       -9.14610106872121
H            7.88616845502445        1.97727649296652       -8.78537072367765
H            7.31505887004660        1.27097006485626       -6.52193980855053
