95
 energy: -20.884524001329 gnorm: 0.000714946121 xtb: 6.5.0 (97a52f5)
F            0.64370422631925        1.37742736379254        0.62116339472585
C            1.48008869071771        0.51543835072517        0.00970362137710
F            0.81160872816265       -0.08839489928499       -0.99740694021965
F            2.56003433735077        1.15677591696420       -0.47545248168402
C            1.93341686902978       -0.54360144190341        1.01788004058698
C            2.20001625019214       -1.82905864600160        0.54289569357785
N            2.33986559977714       -2.10027405712068       -0.86144431786557
C            1.60035468796797       -3.04735817818302       -1.59509662025017
C            0.44184308582780       -3.74777435965992       -1.26685007388844
C           -0.04502012792254       -4.67179760280359       -2.15658084683663
C            0.59742043169827       -4.90401925827696       -3.37609437930273
C            1.72900213999647       -4.20734104897171       -3.72390312030548
C            2.23521632029913       -3.26350840213707       -2.82890915017519
C            3.38178181657056       -2.39130005412930       -2.87808736153034
C            4.38064309027191       -2.19991294192039       -3.83393482632913
C            5.37588607720512       -1.28974233556550       -3.57325199431078
C            5.39292485238266       -0.56380358780957       -2.37868201320253
C            4.42184836086630       -0.74691553003300       -1.42735563920813
C            3.40860870815808       -1.67063841107882       -1.67281548648178
C            2.37761282748546       -2.88934376034131        1.44824982004741
N            2.68809714676322       -4.20946758236460        0.97239515259549
C            3.81291999219800       -4.56436133371477        0.20385972966794
C            4.95906393164554       -3.84050270917689       -0.11901431063520
C            5.89014557609872       -4.41390627391327       -0.94788054323772
C            5.70376334818428       -5.70272864739721       -1.45645114159923
C            4.58637051143190       -6.43523900704009       -1.13699273092710
C            3.63106914451309       -5.86560145645201       -0.29351282687856
C            2.36896895488010       -6.34414673363806        0.21412502718271
C            1.67037966541580       -7.53824932301724        0.02880796732189
C            0.44375045304359       -7.68335777518053        0.62969416803306
C           -0.10148493817077       -6.66041894498702        1.41164008594289
C            0.57210052839950       -5.47984818550356        1.60202215277823
C            1.81828574599258       -5.31665924243366        0.99922417824329
C            2.18807744678967       -2.66822524454923        2.79580540528554
C            1.95476035339499       -1.39816127928587        3.28947178042681
N            1.52478818003383       -1.25815266894667        4.65364676272613
C            2.38780614047070       -1.46423924452086        5.77508183372293
C            3.21321454278227       -2.53099280251822        6.10618469170253
C            3.98696546416031       -2.44190679795270        7.24264312430577
C            3.95946602947259       -1.30191002106953        8.03895645097294
C            3.15782433536804       -0.22815805120830        7.70938466596607
C            2.35840106367263       -0.31502553538695        6.57851554781338
C            1.52055670409737        0.67544537876110        5.88599313119139
C            1.80332650704131        1.98649233674794        5.79655141213833
C            1.30025651631508        2.82507933908547        4.67302368979474
C           -0.13471113838134        1.74847405048735        3.44930120369672
C           -0.18783345676241        0.35367454900447        3.99556313328439
C            0.72974129634248       -0.09142537213678        4.90070377933842
C            1.97601612744079       -0.27049448684153        2.40507836684878
N            2.32951515472470        1.06753909536775        2.87913573060854
C            3.36947291235380        1.71761092314657        2.15567786156217
C            4.58604532077932        1.19103325150663        1.73817332214381
C            5.39267798422290        1.94426131628020        0.91602270466922
C            4.99564625485145        3.20853389104350        0.49210534621698
C            3.78621875896464        3.74059436916541        0.88486528371713
C            2.96011354276198        2.99725789306041        1.71940716317237
C            1.64642963211379        3.30022845461795        2.26414815458353
C            0.92434166627068        4.42991907104632        2.11058305251324
C           -0.25681520061934        4.79492803738086        2.86235475565739
C           -0.77345324740411        4.16151032906399        3.92216274124597
C           -0.24780752157542        2.88088251340734        4.50266415364949
C            1.34509873905496        2.17917070166161        3.23453768464584
H           -0.04408549618358       -3.55615990250091       -0.32707046130775
H           -0.93365864815399       -5.22917657773337       -1.91030769668707
H            0.19532878584349       -5.63764483840311       -4.05507646692160
H            2.22681513412783       -4.37735040710181       -4.66206794118794
H            4.35988834049581       -2.76185227700200       -4.75082650226236
H            6.15230347996958       -1.12785701520764       -4.30254290385102
H            6.17570470902600        0.15632183572669       -2.20640668123943
H            4.40207581711397       -0.16958268431270       -0.52087839564404
H            5.08732399482722       -2.84722230939285        0.27221680352745
H            6.77527232974951       -3.86076332420318       -1.21574884562415
H            6.44904263191012       -6.12722724342768       -2.10842069559484
H            4.43525856310456       -7.42694711570431       -1.52512204831059
H            2.09290805574514       -8.31718519060994       -0.58086704787545
H           -0.10910780265570       -8.59816169337855        0.49480233158782
H           -1.06737048228781       -6.80027247429782        1.86838987683933
H            0.15714246116328       -4.68295945775885        2.19283782107823
H            2.20236483111447       -3.50387870250613        3.46871366012561
H            3.23817669479686       -3.40540683561815        5.48173119607402
H            4.62707978920477       -3.26487359410181        7.51518091535939
H            4.58005111264965       -1.25206334380888        8.91825678633239
H            3.14995912831488        0.66752380330536        8.30526400453833
H            2.54296949966029        2.40390819927478        6.45815567390429
H            1.74396480299113        3.83277491168783        4.67741385627200
H           -0.75163075565599        1.91132705704677        2.55081535330340
H           -0.62544532130500       -0.38557911031873        3.34505796531608
H            4.87070402355072        0.20301664270384        2.05454247070170
H            6.33863526185805        1.54588798039458        0.58769538953109
H            5.63806566937297        3.77498395906882       -0.16168914990157
H            3.47022272031564        4.71024851894383        0.54338709742792
H            1.28784517713905        5.14681628008380        1.39434547471047
H           -0.75202210891752        5.69757861743459        2.53928683522151
H           -1.65858564176955        4.56989390070191        4.38183482904973
H           -0.78046389875312        2.55724849305624        5.41170933462854
