52
 energy: -11.558256579891 gnorm: 0.000772465342 xtb: 6.5.0 (97a52f5)
F            4.67857318087907        0.08938075491716       -0.33539735839002
C            4.82667422210304        0.08388940465192       -1.67609886041620
F            4.55427981682830        1.30499465875786       -2.18077382879015
F            6.08206101894501       -0.28409808066717       -2.00649671979274
C            3.85601129325597       -0.91310185567018       -2.28327954608704
C            2.82983250483960       -1.46554746349702       -1.51115307018411
C            1.93611983980148       -2.35739092582813       -2.04360336396308
C            2.05479767003731       -2.71585543178603       -3.38940306460103
O            1.29037219232363       -3.56993169865669       -4.16080158232283
C            1.81925091420772       -3.56988641243753       -5.43897276839517
N            1.36790098354843       -4.25911682711108       -6.48859676588679
C            2.05948821480931       -4.07058948536634       -7.61423498577815
O            1.80649367390180       -4.64854459933131       -8.84459219742599
C            2.75380626926483       -4.17526504946054       -9.73439332724681
C            2.92866404987136       -4.44166014335707      -11.09544159846475
C            3.95574685363588       -3.83645707702339      -11.76740738305119
C            4.83990340880189       -2.95647428638023      -11.11941656980914
N            5.91178144557063       -2.33927345622757      -11.85740144415005
C            5.79823268190142       -1.21868252904924      -12.69861958160575
C            4.69129377167831       -0.44103565812581      -13.03335331764410
C            4.86779890432556        0.61929264969036      -13.88588576938700
C            6.12749608390667        0.91968028339918      -14.41179859868011
C            7.22785484509813        0.16375522762248      -14.09100181136021
C            7.06622959288976       -0.91808660039136      -13.22438319225912
C            7.99108769504745       -1.88823203303499      -12.69081570832350
C            9.36126326003668       -2.08459865421520      -12.86877963591307
C            9.96763735285955       -3.12588366914928      -12.21067996867394
C            9.23544286880244       -3.97694699810769      -11.37810314128447
C            7.88785070340126       -3.79842665401581      -11.19259302408157
C            7.25760213374386       -2.74567126944419      -11.85333285072713
C            4.68061814894603       -2.68363441332712       -9.77583211729233
C            3.63635491716148       -3.29130526090176       -9.08530767326105
C            3.19605212736563       -3.21615264435690       -7.72566015611197
C            3.66359550290163       -2.50549067489700       -6.63973889846236
C            2.94694369211966       -2.69837295680276       -5.47659109603259
C            3.09074674506121       -2.15595336544207       -4.16157218590636
C            3.99050530309987       -1.25001399684485       -3.60544664091539
H            2.75858759535719       -1.17147410130178       -0.47714637423684
H            1.14430582970020       -2.78414140668925       -1.45409800775861
H            2.25191398740927       -5.11663248987039      -11.58762484655505
H            4.10648307493459       -4.02943451817816      -12.81496788576357
H            3.72747397850634       -0.67947967645773      -12.62061805008176
H            4.02272526219635        1.23169055250454      -14.15349036068858
H            6.23573604899642        1.75913573147096      -15.07826674099361
H            8.20003690539523        0.39097725766324      -14.49064061129193
H            9.91893446597452       -1.42697332351803      -13.51142683863097
H           11.02465608424037       -3.29100142543819      -12.33746228331692
H            9.73819361988429       -4.78604668375394      -10.87473003165652
H            7.31444983449486       -4.44798164254588      -10.55585073800932
H            5.35024976906693       -2.00946742335754       -9.27618035996625
H            4.51314940325666       -1.85132984236458       -6.69542325848452
H            4.77969025761263       -0.81947381629693       -4.19499380988567
