53
 energy: -11.668170608644 gnorm: 0.000590915988 xtb: 6.5.0 (97a52f5)
F            1.55286078719797        1.53632511701733        4.09017563241203
C            1.93203361181109        1.45425756326174        2.79804232453365
F            0.88458005048144        1.09895105346718        2.02631253295536
F            2.43494404367390        2.63597286830148        2.38700229996023
C            3.01866627588096        0.40196404508118        2.67449672185467
C            3.10820079590497       -0.38157101083835        1.52061297792544
C            4.09006650381264       -1.32694708498404        1.37414935088677
C            5.02103007470415       -1.50360812003321        2.40141283971212
O            6.09012716664147       -2.37266047608778        2.50296563802569
C            6.69972593843709       -2.14975058001250        3.72466750964717
N            7.76836192191873       -2.78473245707221        4.20993820732813
C            8.15427008950548       -2.37490728681004        5.42033397597968
O            9.22248962368065       -2.85727210726412        6.15391892988135
C            9.26241560110200       -2.15910397557509        7.34864570774034
C           10.13764343284432       -2.26814846450805        8.43274229446078
C            9.96072850260208       -1.45460234594301        9.51869776470930
C            8.91989770138825       -0.50562499733556        9.57033976242274
N            8.75571029365977        0.33139095246737       10.73378804692445
C            9.67827902257038        1.37473767169130       11.01116633139048
C           10.76052579821378        1.62096038804813       10.18306495078795
C           11.64963651128647        2.64048850799851       10.45996060561603
C           11.46464939611578        3.43104939406978       11.57141387768490
C           10.38829214228991        3.20723882367659       12.40496813564742
C            9.48218722451476        2.18924645304799       12.14340289081205
O            8.40486151618742        2.01001886645447       13.00614281286036
C            7.49498057999880        0.99713418363307       12.71728689153126
C            6.40668271035952        0.81351209266803       13.55848680987513
C            5.48259045860481       -0.18199681546625       13.31651251141863
C            5.63483855570974       -1.01248680828541       12.22956083682306
C            6.71083021338596       -0.84630036829889       11.38041110747653
C            7.64558025593858        0.15150766527239       11.60098748350987
C            8.04948912408513       -0.38654480739965        8.50113574182393
C            8.22017640105276       -1.21441156644701        7.39607870802486
C            7.50445122011842       -1.34685000601967        6.16500587047423
C            6.40023153412922       -0.68909894238752        5.66241430146877
C            6.00083323728927       -1.11415118685440        4.41128961885193
C            4.92850617708974       -0.70680158995993        3.55920262575789
C            3.92414910258428        0.24935359567566        3.69297103087423
H            2.37774824233362       -0.22644074618372        0.74383710315138
H            4.16211968575754       -1.93493364548940        0.48997292851455
H           10.93019888244988       -2.99355357177409        8.39390557167338
H           10.61903777031260       -1.53260922263237       10.36603564076222
H           10.90024886446169        1.00830488338029        9.31071357536586
H           12.48658686516487        2.81727492646153        9.80496181154294
H           12.15740596974159        4.22697864913519       11.78931013153225
H           10.22801720782324        3.82127609528094       13.27323991477883
H            6.30238973942990        1.46717007365544       14.40611149412839
H            4.64315210266571       -0.30966174992570       13.97981876730628
H            4.91505680219301       -1.79142905069225       12.03988872271999
H            6.83346179701110       -1.49974026078331       10.53549349087269
H            7.25570010246250        0.33579477887776        8.52658210221010
H            5.89211160033826        0.08878315282529        6.20047667376195
H            3.84868077108570        0.85548744362667        4.57766641160088
