41
 energy: -8.523477340498 gnorm: 0.000974052978 xtb: 6.5.0 (97a52f5)
F            0.63686781209382        0.14538509486651       -0.49157888563636
B            1.98073607281578       -0.06587839540832       -0.21369967496169
F            2.20210772695855       -0.08884695905753        1.15716554363617
O            2.45609878603470       -1.30820756748865       -0.84763760857232
C            3.38186172119924       -1.40006145754356       -1.84480242270879
C            3.72111862695186       -2.77476876461692       -2.24912301060582
C            5.02302146238367       -3.16594831924008       -2.55739418075418
C            5.30160773909723       -4.47147236210611       -2.88992618631514
C            4.29269197866761       -5.41337007136295       -2.90384389946837
C            3.00351693372775       -5.04749544298070       -2.57364494166147
C            2.72184960921644       -3.74217451236590       -2.24257402599611
C            3.95933340673088       -0.26234277118470       -2.40380183578942
C            4.81814443731992       -0.26317764430265       -3.59237892215391
C            4.61343980305362       -1.15161796675702       -4.65156403609845
C            5.42107398382638       -1.12415525537510       -5.76417593401067
C            6.44419307749773       -0.20267751198876       -5.85608765433516
C            6.64811491362608        0.70207194261318       -4.83440194883306
C            5.84083170021469        0.67822624174103       -3.72182945879799
C            3.64657593939312        0.99509062310394       -1.78548542493622
O            4.14205363456142        2.25224314614523       -2.06950693956206
C            3.51343762116482        3.13777498698700       -1.20772013130899
C            3.59677619451301        4.52435341042366       -1.04350210130353
C            2.81971882333822        5.12942461554425       -0.09118649655159
C            1.94562363531043        4.39045029204993        0.72036687528645
C            1.84019612505844        3.03372891699069        0.58630264659039
C            2.62687740293679        2.40759411437314       -0.38025119681020
N            2.75970722992234        1.10776037252982       -0.78527490529694
H            5.81197799607369       -2.43507184362452       -2.52328260553516
H            6.31068782486645       -4.76035912026430       -3.13361437069049
H            4.51325505634614       -6.43618610216575       -3.16111070894462
H            2.21813394461695       -5.78523717475428       -2.56715728932658
H            1.72586201554770       -3.44770623986308       -1.95784327890550
H            3.80131252894881       -1.85488685627695       -4.59404224361934
H            5.25110875185301       -1.82071497664364       -6.56851465237936
H            7.07584139453143       -0.18201074653332       -6.72878158302250
H            7.43503244705574        1.43408635590099       -4.91180990492764
H            5.97704791184147        1.40202445276314       -2.93704998797053
H            4.26461126417888        5.08848295813240       -1.66903145727134
H            2.87822680017664        6.19749149166802        0.03752053576637
H            1.34862196279702        4.90011068753287        1.45830845769904
H            1.17800370355040        2.44216835854035        1.19379584608365
