27
 energy: -5.346494786047 gnorm: 0.000425224597 xtb: 6.5.0 (97a52f5)
F            2.05313303220149       -0.90290684810722       -1.83463281115714
B            1.99028533112547       -0.40351111515893       -0.54124130397444
F            2.51394669671102       -1.31498840567311        0.36495881941597
O            2.71693171821482        0.87058554042829       -0.45498571146525
C            2.15573884820213        2.05513629078280       -0.07487558928719
C            3.05610029007597        3.21394458924658       -0.03036845252951
C            4.33202869486493        3.07230070981058       -0.56199572723370
C            5.22485088735956        4.11888272668782       -0.54953463304352
C            4.85783145491584        5.32902064809784        0.00055845672254
C            3.59778223926755        5.48576902387371        0.53995636161193
C            2.70267368514832        4.44005028598691        0.52778284613697
C            0.83242229189584        2.13184151531541        0.22950296693074
C            0.00187730194388        0.98243753887046        0.16292208112029
C           -1.35278298896845        1.01183305080856        0.44936880973557
C           -2.07959066043901       -0.15109097275239        0.35496445728520
Cl          -3.77240257743345       -0.07056513370460        0.71755044463301
N           -1.55075585493285       -1.32572189266203       -0.00028597962971
C           -0.26312913100622       -1.30496923293172       -0.26272510785552
N            0.51330894252544       -0.21923118742071       -0.19647033795873
H            4.60498337727744        2.11826175488917       -0.98166845966222
H            6.20965875288941        3.99178517314419       -0.96805428555345
H            5.55555850311188        6.15003758527876        0.01188014570820
H            3.31428550694274        6.42985528281620        0.97535452293731
H            1.72939053378312        4.56914610467765        0.96581266678927
H            0.39012152339489        3.06912695278681        0.50666338558478
H           -1.83606116824153        1.92767757337179        0.74003377840196
H            0.20580276916974       -2.23168755846275       -0.55484134366336
