30
 energy: -6.272260285282 gnorm: 0.000986920436 xtb: 6.5.0 (97a52f5)
F            0.71602643419718       -0.22983845743714       -0.52169326211479
B            2.05703460266512       -0.08156487654599       -0.20479705217250
F            2.26220990210900        0.02492850100523        1.16230067891830
N            2.86636744505664       -1.26130643848966       -0.76416806854152
C            3.02981161914127       -2.62420821065617       -0.68834396047831
C            2.24803879086813       -3.51303814089305        0.13928937281973
C            1.15992316849439       -3.00196150505321        0.84696598884272
C            0.39767515970477       -3.81533385193700        1.65018406204253
C            0.70635268621720       -5.15659502551406        1.76361396921277
C            1.77931609901289       -5.68083250505680        1.06868841263260
C            2.54508422659695       -4.87117748282982        0.26236281358867
C            4.09854518064096       -2.87264177572016       -1.56836362285997
N            4.54500844114443       -1.74340469568896       -2.14014485821097
C            3.77378137193947       -0.74128677579582       -1.63446868680851
C            3.65779179527699        0.68860941662364       -1.74592769897741
C            4.38829372819509        1.58572517513342       -2.51210306155145
C            4.07289733956016        2.91900975206465       -2.42417226542732
C            3.04924579567177        3.34502290613747       -1.58597647126353
C            2.34549993565365        2.43167629722444       -0.84000399776572
N            2.65604043186970        1.13069751153709       -0.93148097774147
H            0.92279346269440       -1.95704583421789        0.73949843908470
H           -0.44062632525943       -3.40581895603527        2.18936254431112
H            0.10922228215414       -5.79445398727528        2.39407285358723
H            2.01775595041939       -6.72766054680369        1.16006021883987
H            3.38314020741685       -5.27871244948846       -0.27491048002589
H            4.52043829060810       -3.84331068596801       -1.77959583406460
H            5.17693088166677        1.22932768110511       -3.15098570039969
H            4.62216728669977        3.63956848743375       -3.00722411999131
H            2.80790782161823        4.39276404857983       -1.51999991427488
H            1.54899598796552        2.72264242456207       -0.17747932121043
