127
 energy: -26.954186555341 gnorm: 0.000660481836 xtb: 6.5.0 (97a52f5)
F            1.77564067365741        0.11957456842015       -0.70471803145477
B            3.12679678106186       -0.04835375154336       -0.41199670034941
F            3.33279118215910       -0.17233398808362        0.95991316856759
N            3.64214452844421       -1.29949230443651       -1.12301154871865
C            3.21038937991998       -2.55292979663972       -0.83310241170442
C            2.26613513668352       -2.85431894433837        0.17817755926250
C            1.85960732786028       -4.10280193003394        0.50437210571350
C            0.93521723076002       -4.42236288912313        1.55895851373803
C            0.62686917312367       -5.76259195431451        1.82782258721071
C           -0.22794268513658       -6.10181839490070        2.84315622915890
C           -0.81787132844033       -5.12157126712530        3.65133636399633
C           -1.73332776495205       -5.47532547667416        4.74865679879582
C           -1.52723900271145       -6.61098427054842        5.53447183855215
C           -2.60105471498919       -7.15530334704573        6.39032144875272
C           -2.31001147056558       -7.66473119055819        7.65824174593984
C           -3.30330969747925       -8.18439970798119        8.45655128114259
C           -4.60894402493624       -8.21356572827194        8.00809830585234
C           -4.91768389972747       -7.72392039206717        6.75454938639339
C           -3.92733183916031       -7.20441037477014        5.95275400872207
C           -0.21827215294450       -7.29683685335073        5.56251866859750
C           -0.14453745959196       -8.69175935833878        5.58529496873794
C            1.07214609141289       -9.33389985067961        5.62381000641180
C            2.24254538049172       -8.60135952379962        5.64627390365290
C            2.19236372976480       -7.22152543564485        5.63427958261688
C            0.97819032788124       -6.57524412416179        5.59718604096089
C           -2.87881124758392       -4.57330567907127        5.00332149366437
C           -3.22688013244100       -4.19440253657827        6.30173690926488
C           -4.28695567295682       -3.34681964997828        6.52959744842157
C           -5.01943694379611       -2.85305404865367        5.46845890018981
C           -4.68625283158867       -3.20825913793617        4.17645270512072
C           -3.62733831625628       -4.05636045102004        3.94406741995567
C           -0.52818158784221       -3.78132052036732        3.36702935367741
C            0.32772205084890       -3.43922503614234        2.35266344233237
C            3.93380912023503       -3.42000858301639       -1.70902796009171
C            4.76840875757997       -2.66084796430537       -2.48144661509764
C            4.59287127221057       -1.28866292686325       -2.11762566865866
C            5.24506989924464       -0.12447977733791       -2.56242424395152
C            6.27014026053853       -0.16132259192080       -3.62112263106111
C            6.04947043763048       -0.86301623324971       -4.80840922654129
C            7.00665392183980       -0.89681859555887       -5.79674364912263
C            8.20537147034739       -0.23392508151080       -5.62349388365393
C            8.44437230839322        0.46406436096363       -4.45628757094882
C            7.48967253943468        0.50135222080739       -3.46567090368422
C            4.87167953475539        1.07263339570229       -1.92441962697801
C            5.32120031050104        2.41552834057492       -2.11605969592386
C            4.63838738005796        3.22205890578655       -1.25010017657467
C            3.71643967560973        2.42283175454910       -0.50299318986547
C            2.80367193397305        2.77460719672504        0.53101616500105
C            2.36735992765477        4.02158820362498        0.86041443203492
C            2.52787038025087        5.23230626717686        0.07782539644462
C            2.65022032734599        6.47363592491062        0.71663946926031
C            2.82888836576268        7.62373717218062       -0.00582385926840
C            2.88872613468571        7.59984003535645       -1.40562641043199
C            3.12935062238235        8.82292379243612       -2.18831269821596
C            3.99136402652279        9.82157757283937       -1.73094988984169
C            3.99115190327033       11.17132730508366       -2.33023176897758
C            5.18867464001089       11.86870480986983       -2.50795099668368
C            5.19728817751490       13.13204108976842       -3.05374310076863
C            4.01236215441529       13.73245815357375       -3.43043132117658
C            2.81624211587047       13.06533032769474       -3.25502439343138
C            2.80315978810303       11.80245545526276       -2.70846508636996
C            4.96071270507044        9.55697446109959       -0.64639928351259
C            5.18053018228290       10.50141371683443        0.35923675974801
C            6.08367374904508       10.25943761164300        1.36901336006981
C            6.79248303849680        9.07459770318481        1.39658396530345
C            6.59911107513168        8.13237823104316        0.40587661351382
C            5.69839914087807        8.37040753332927       -0.60657422652119
C            2.45156471176088        8.94486202290083       -3.49819340136329
C            3.13965390357550        9.38809031826248       -4.62987601623076
C            2.50592718326575        9.48752518753288       -5.84737325616428
C            1.17471218596398        9.14114290379014       -5.96554616633569
C            0.47862407126750        8.69226032104845       -4.86081631887285
C            1.10822477217580        8.59233534460951       -3.64096293683341
C            2.69747565563995        6.36881090380292       -2.04530146444454
C            2.51740437584519        5.21815754662105       -1.32401555776582
N            3.91318150785607        1.15174257599868       -0.93921581211384
H            1.88616920173749       -2.00986022110032        0.72226658606686
H            2.26937916268606       -4.92759644843778       -0.05064208681222
H            1.07811532556090       -6.53234305626557        1.22552611185837
H           -0.45653635366999       -7.13647183507560        3.03049716914340
H           -1.29255854988106       -7.63844688502216        8.00834217088505
H           -3.06165593486868       -8.56933958082723        9.43373102272863
H           -5.38577360249556       -8.62004676553635        8.63483840862114
H           -5.93611438813530       -7.74899421433178        6.40299557269878
H           -4.16703949763962       -6.83014055953034        4.97273693745192
H           -1.05758600338584       -9.26131597819232        5.56458756589199
H            1.11161815715725      -10.41082207324703        5.63658283952766
H            3.19432528134029       -9.10605148223751        5.67558497235687
H            3.10546314299432       -6.64943158182725        5.65390728690586
H            0.93809355676741       -5.49975180408461        5.59432319429748
H           -2.65112748513569       -4.57523706757159        7.12743280828237
H           -4.54492243080852       -3.06714879847077        7.53789869909553
H           -5.84869063271830       -2.18872630693519        5.64862759372367
H           -5.25556266113636       -2.81982882583133        3.34793605912827
H           -3.36633548613650       -4.33562774088958        2.93786818197182
H           -0.97997911491912       -3.01462260833947        3.97239872352295
H            0.53647978165432       -2.40097129787440        2.16744487623549
H            3.84318512046989       -4.49246811906954       -1.74312372887621
H            5.46016498607898       -3.02913062442709       -3.21957083791104
H            5.10716776403504       -1.36341608967182       -4.95003321667214
H            6.81901174414210       -1.43962124861484       -6.70877142151900
H            8.95433546503128       -0.26195969465639       -6.39795061100473
H            9.38192035097188        0.97760569758754       -4.31898345743187
H            7.68453264627534        1.02541928292338       -2.54603946515238
H            6.06817687800898        2.73271333565151       -2.82332292976214
H            4.78877951141105        4.28126689140034       -1.12874956069442
H            2.46602118042977        1.94153094913591        1.12650550937870
H            1.82684277671137        4.13190501970973        1.78794148955649
H            2.62715589838449        6.50938561282474        1.79221794056257
H            2.93338333131860        8.56633093998660        0.50248904112879
H            6.11218284980667       11.39881284312708       -2.21683815868494
H            6.13069182098283       13.65403477907883       -3.18704093016098
H            4.02074961515842       14.72153833838334       -3.85840446091078
H            1.89094664832899       13.53482464180865       -3.54622286655398
H            1.86990324927124       11.28644112201878       -2.56465970507311
H            4.62360974101082       11.42221531174465        0.33842786516600
H            6.23685265437997       10.99558727433278        2.14105896918150
H            7.49720758017495        8.88588655379250        2.18976219957251
H            7.15378192386315        7.20862993731698        0.42600740029988
H            5.54999625375162        7.63871405670054       -1.38178668106255
H            4.17883450803081        9.65211360128606       -4.53700549403453
H            3.05016996367876        9.83551228515024       -6.70997279109285
H            0.67997408507787        9.21870521318169       -6.91978790055480
H           -0.55964094633365        8.41900102439309       -4.95399869005012
H            0.56706250376485        8.24442158685919       -2.77804910843419
H            2.71248762667373        6.33422156856406       -3.12078927138217
H            2.35916893445454        4.28294947392074       -1.83276446838189
