45
 energy: -9.828021832414 gnorm: 0.000958345344 xtb: 6.5.0 (97a52f5)
F            2.36993336960466       -0.58267522660118        0.62970779358461
B            3.04062332939704       -1.76712397690109        0.35958921541912
F            4.29718393080810       -1.79636637974066        0.94748991373477
N            3.15604753414755       -1.98024088718594       -1.15526421762290
C            2.46427503648755       -3.14290909184400       -1.44019166196934
C            2.56775103347180       -3.36477891825893       -2.81683151566875
C            3.33879270394320       -2.30554613792059       -3.34857813725888
C            3.78595477837260       -2.01008691220122       -4.68340692565667
C            3.46436818927279       -2.84311062423072       -5.76074716215614
C            3.90182559144277       -2.55109205278269       -7.02459382202687
C            4.67195002912691       -1.41963208411792       -7.24715423313979
C            5.00119841292480       -0.58602454823890       -6.20740843232420
C            4.57532625510896       -0.84684874142820       -4.89942326347649
C            4.92501659801655        0.03714689481505       -3.78054274502135
C            5.69287371124988        1.19752297355813       -3.93619837401829
C            6.00079229375298        1.99929478702577       -2.86333156485510
C            5.55655175330537        1.67877551390458       -1.58728872164389
C            4.80398096160451        0.55356368514420       -1.39250594976638
C            4.48121954199784       -0.27240929663292       -2.47200904801146
C            3.69706556767335       -1.44289030528819       -2.28366317385748
C            1.89371241176777       -3.73228271115508       -0.25657279671767
C            1.13286238369247       -4.90118844335065       -0.10978581589854
C            0.71299206863271       -5.26099021212587        1.13285380753111
C            1.03809856790443       -4.47240123025526        2.26968798419251
C            0.62895377838089       -4.80804755214838        3.57304304556135
C            0.97242742512220       -4.01705996744654        4.63467005635518
C            1.73466195726203       -2.86258724343892        4.44414915640636
C            2.14609354438055       -2.50859959129290        3.19129246025840
C            1.80681032466723       -3.30113837282569        2.08921076177303
N            2.20665391743735       -2.97197956306182        0.81773007573072
H            2.14480666889632       -4.19065454460029       -3.35949404917759
H            2.86791979370934       -3.72088977936497       -5.58434828476139
H            3.64912523257779       -3.19993633367466       -7.84704724486033
H            5.01381762174586       -1.19522314007272       -8.24423222319509
H            5.60041364805526        0.28265860267234       -6.40917697102470
H            6.05142285295236        1.47353967342356       -4.91067148459809
H            6.59321639261003        2.88719381972259       -3.01152269905731
H            5.80335067266087        2.31466671045512       -0.75313830525221
H            4.44540780824114        0.28194644430056       -0.41385433328193
H            0.89452957572642       -5.49295848775180       -0.97580322128833
H            0.12736431341130       -6.15306827127016        1.27060689750644
H            0.04223990075919       -5.69745076257236        3.72390632899092
H            0.65401470614078       -4.28541870924879        5.62839513873431
H            1.99946369701999       -2.24994487256025        5.29003636576601
H            2.73522011453759       -1.62413413343424        3.02101737604175
