40
 energy: -8.465793272340 gnorm: 0.000640826356 xtb: 6.5.0 (97a52f5)
F            0.92675776976157       -0.48216539586663       -0.59241583933553
B            2.27151608756102       -0.39449176925985       -0.25795235447235
F            2.47811979623931       -0.46311065565241        1.11300616954287
N            3.06260649317228       -1.50549563270041       -0.96577355553802
C            3.95752874291441       -0.88572686438762       -1.78909164463758
N            4.69479910018568       -1.80278054512223       -2.44406736100835
C            4.23387652274385       -3.01869191586453       -2.03299623278433
C            4.70397156487361       -4.26219026244559       -2.63438950370857
C            3.87852415726550       -5.38136165416768       -2.77152088369291
C            4.34341992898384       -6.52749596063133       -3.37214409246954
C            5.63386093413085       -6.57983499506809       -3.86183612845379
C            6.45610253098744       -5.47482249025430       -3.75915236970578
C            5.99538198020458       -4.32633724235768       -3.15961336741650
C            3.20112600010147       -2.85804433123189       -1.05044860115982
C            2.48290368012145       -3.79052540762462       -0.20457304916267
C            1.28690721878533       -3.38103098563611        0.38737376445850
C            0.58882652817467       -4.21898491642523        1.22289925319459
C            1.07649381319058       -5.48117120358116        1.49881787958650
C            2.27223453404357       -5.89594336076502        0.94492772082753
C            2.97381746387635       -5.06038445734976        0.10792701108028
C            3.85844733402571        0.54953038508564       -1.71456451150893
C            4.57971830635016        1.52799452742452       -2.38212709958294
C            4.28078182443945        2.84321439095269       -2.12294160388087
C            3.28136215362998        3.16999838356289       -1.21497688962405
C            2.58585140643825        2.17642704580376       -0.57036566908853
N            2.88183966014661        0.89451844105439       -0.82751849157583
H            2.86071329329924       -5.32687783467185       -2.42717915461015
H            3.69707826187415       -7.38445036044965       -3.46755893294441
H            5.99561443665294       -7.47889190055923       -4.33287053497950
H            7.45831996770132       -5.51093597765174       -4.15333911229513
H            6.62447740309368       -3.45620339178708       -3.08620571843236
H            0.93354173016741       -2.38377214413813        0.18666612807464
H           -0.33394518214713       -3.88638248594913        1.66906436319434
H            0.53088304002763       -6.13749605425767        2.15650715982850
H            2.66090435007710       -6.87383108190259        1.17689589542682
H            3.92584557929732       -5.36768024289189       -0.28695780971164
H            5.34853083417845        1.24667733370726       -3.07990727323066
H            4.82443603415575        3.62588204983429       -2.62579756077030
H            3.05147185841506        4.20332517838705       -1.01539747948537
H            1.80536286085924        2.38862378483758        0.13922748005189
