39
 energy: -8.241445263532 gnorm: 0.000632009295 xtb: 6.5.0 (97a52f5)
F            1.29572961392534        0.54102842047188       -1.69336398392357
B            2.06761063748545        0.70494925633767       -0.55069735784119
O            2.99227432063318       -0.41186116773721       -0.40602014491136
C            4.11181146285694       -0.38822060016471       -1.17833234723847
C            4.73544837174114       -1.68543719706488       -1.43929106602295
C            4.16136444755005       -2.84613852353403       -0.93479851726366
C            4.73432290501729       -4.07301351791311       -1.17890504293348
C            5.88971180274875       -4.15793526148227       -1.93047727242323
C            6.47044001672260       -3.01221710064017       -2.43799460686670
C            5.89840527794703       -1.78449236215350       -2.19572163030381
N            4.66451986172630        0.67507847905610       -1.68327837836272
C            4.07882754763956        1.86867198993172       -1.34617064712073
C            4.74386298014639        3.05005633214338       -1.65694207431741
C            4.19369695203187        4.26466150265854       -1.32223960733562
C            2.98373056053896        4.31331001223951       -0.67143542479351
C            2.30971225803348        3.13881457175499       -0.35401671104801
N            2.87988345452228        1.96103948889645       -0.71593356398137
N            1.11219854137058        3.22437239054710        0.30937939811845
C            0.64526788559144        2.10452504306535        0.77763631497685
C           -0.58753470017110        2.14140244930810        1.56441505716823
C           -1.24716952986589        3.34083641967764        1.81015849552171
C           -2.40683421327357        3.35987062792502        2.55041376591947
C           -2.92467208347080        2.18332411592353        3.05498538166907
C           -2.27956709638014        0.98574976449340        2.81722706095277
C           -1.11979170089280        0.96461474139570        2.07721927748615
O            1.20930007771765        0.87738829722718        0.61386603858489
H            3.25726189434793       -2.76129028961810       -0.35567463546444
H            4.27985542674629       -4.96700832744757       -0.78466597295321
H            6.33790413495935       -5.11893661829646       -2.12161960737282
H            7.37100644959560       -3.07922101991209       -3.02596647246715
H            6.33817096777995       -0.88420661643045       -2.58839283078224
H            5.69258905999059        2.99171274001685       -2.16085571932622
H            4.71152163739818        5.17718087629909       -1.56720292755775
H            2.54012487171531        5.25410949807787       -0.39663884862273
H           -0.83367980554797        4.24989819681005        1.40954528143173
H           -2.91178402965958        4.29370064436383        2.73509502262482
H           -3.83345135667089        2.19931220925850        3.63353044962375
H           -2.68391599438134        0.06740688536803        3.20997417846615
H           -0.60478290816412        0.03997364914720        1.87873966868978
