70
 energy: -14.917147104849 gnorm: 0.000593427438 xtb: 6.5.0 (97a52f5)
F            2.51814963586184        1.28257826817248        0.34749384884510
C            1.37276190029352        0.67406845654485       -0.00788415483363
C            1.32438965019966       -0.70784011262456        0.00687656329915
F            2.44477007290211       -1.39553857585130        0.29509791855794
C            0.14222178104609       -1.38238486967953       -0.31368615911865
N            0.08691926008480       -2.80412807806595       -0.25275423394192
C           -0.52928580873009       -3.65730419214345       -1.19268798717927
C           -1.18365019973011       -3.37998753171756       -2.39119178994956
C           -1.68304492553495       -4.42247998498123       -3.13134961448256
C           -1.53793487275254       -5.74299116726613       -2.70261038524113
C           -0.89020216519208       -6.03578730660388       -1.52679115227419
C           -0.37901532703663       -4.98582340821304       -0.76573441233391
C            0.34450781860773       -4.95663716877520        0.48244031142659
C            0.75362402265448       -5.96772348882537        1.35045466432619
C            1.42708220735373       -5.61985470572287        2.49647507639488
C            1.69708469364239       -4.28239738188212        2.79099124777695
C            1.29891860946612       -3.27795806804224        1.94461109052346
C            0.62220180612483       -3.61204149858697        0.77314375285762
C           -0.98967035087527       -0.64440093622428       -0.67213237309431
F           -2.15858224529735       -1.26197090795237       -0.92489590429867
C           -0.93702568277099        0.73586288952855       -0.71544201547113
F           -2.03632389932857        1.42871114813245       -1.07089020473996
C            0.24054428926842        1.41553286084434       -0.37589110930794
C            0.21987397068391        2.84735972655514       -0.38155285230874
C            1.21544596306457        3.65002171652618        0.04026741136583
C            1.18542763823759        5.09326351281122        0.08822227281763
C           -0.00200022076741        5.82885964243897        0.06463053648271
C           -0.00395045926869        7.27407457191645       -0.23829688973330
C            0.84571436957123        7.82036212136282       -1.20339071315950
C            0.82302595246165        9.16698625982319       -1.48422646606953
C           -0.05187814853341        9.99959790749863       -0.81615404674095
C           -0.90893131334642        9.47922281305345        0.13238296760619
C           -0.88938959891717        8.13310365587897        0.41637972555289
C           -1.30942169452414        5.20111770572536        0.35985133896484
C           -1.48307233271186        4.38321907732198        1.47961739651586
C           -2.68994984186839        3.76945703775289        1.72320451824201
C           -3.75275271949868        3.96710085719479        0.86503806844334
C           -3.60847141317880        4.78905009580703       -0.23449733135118
C           -2.40350494756209        5.40432751337254       -0.48411024227385
C            2.49702596856347        5.76963083422072        0.20093815648907
C            3.59241741480625        5.33044802766164       -0.54405161285786
C            4.81719515956705        5.94754719302828       -0.42804540143930
C            4.97842461652736        7.01140688976119        0.43614710300582
C            3.91046961224596        7.45476454340748        1.18929434916407
C            2.68458907174205        6.83976494972670        1.07726579873678
H           -1.30774942573226       -2.35806690832577       -2.70293799506640
H           -2.19975456350611       -4.21844774858657       -4.05462966009700
H           -1.94119892396244       -6.54255514138701       -3.30169982355770
H           -0.77233882534887       -7.05010887096350       -1.18896992824723
H            0.53785326496572       -6.99518118580693        1.11680021376958
H            1.75174512316290       -6.38903093328567        3.17749315626350
H            2.23058527770447       -4.03564244902941        3.69408612613603
H            1.52004774295788       -2.24624066621043        2.15313419893772
H           -0.69043560099337        3.29397112171156       -0.73767062536597
H            2.13445452301447        3.18353798829322        0.34521472514091
H            1.52094797198094        7.17052543795255       -1.73188829970216
H            1.48848745352701        9.57239311078550       -2.22837913370645
H           -0.06803384554890       11.05412570955698       -1.03719374631241
H           -1.59499837593800       10.12847291876425        0.65081747821048
H           -1.55659716019110        7.72701478303467        1.15664868955252
H           -0.64983947137430        4.22368195616463        2.14184331768390
H           -2.80190088723693        3.12264490049884        2.57762931435473
H           -4.69251866057313        3.47304895063139        1.04928474980353
H           -4.43843081702010        4.93986035792533       -0.90487487820667
H           -2.28386744687370        6.03386406859966       -1.34874496872294
H            3.46709348494275        4.50187950120545       -1.21950507008593
H            5.65271138777839        5.59724845287255       -1.01141634955806
H            5.93837883906988        7.49262009420410        0.52581689172307
H            4.03736366906795        8.28198376298877        1.86800298095966
H            1.85322794860386        7.17971989548907        1.67000157093801
