12
 energy: -1.624590932319 gnorm: 0.000690519961 xtb: 6.5.0 (97a52f5)
Br           3.08094638871234        0.03013783495591        0.09714421938615
C            1.88339753753075       -1.37003709313709        0.06311030457625
C            2.23608791437932       -2.65490900213365        0.10332930690439
C            1.37357148699635       -3.74171689198459        0.06983234085435
C           -0.01071346133075       -3.74865962595366        0.00440656954203
C           -0.85794255830078       -2.70171592803958       -0.02462612082102
C           -0.94259304057267       -1.33435810316551       -0.03679968881980
Br          -7.91103019299692        6.56108295824988       -0.21291267857318
H            3.29554420347799       -2.85731209788030        0.16205609473206
H            1.84611076935918       -4.71242296058001        0.09905225273231
H           -0.48566350264942       -4.71716233608797       -0.02174783809321
H           -3.29666554498596       -0.62169675276827       -0.27459476228478
