17
 energy: -3.287484078852 gnorm: 0.000677950966 xtb: 6.5.0 (97a52f5)
C            0.99673489528666       -0.18225156195537        0.02754846193868
C            2.42404519926639        0.17516373418830       -0.21638979386869
O            2.94550454523454       -0.10127570965755       -1.27177014852984
C            3.19965201013831        0.86136824343086        0.83827978046459
C            4.49291890542805        1.27369996856271        0.55063284302907
C            5.25757987891056        1.91620019498667        1.49898452344636
C            4.73879789844807        2.15534889450360        2.75461188214792
C            3.45551450228130        1.74869206120860        3.05765165514397
C            2.68986971639718        1.10616121415625        2.10944722403738
H            0.54589072265142       -0.54318520300949       -0.89596132574178
H            0.42445800581597        0.68128170980323        0.36634756890410
H            0.91417487408981       -0.97285254615199        0.77332721634722
H            4.88413382906847        1.07637597479063       -0.43314120524650
H            6.26015827589089        2.23080215167209        1.26018414967433
H            5.33512565973951        2.65849177704674        3.49786544447721
H            3.05127627136074        1.93436327206171        4.03918076722528
H            1.69222480999206        0.78563582436293        2.35332095655096
