12
 energy: -0.887652443685 gnorm: 0.002562018239 xtb: 6.5.0 (97a52f5)
F            1.74571090730915       -2.45860159961438        0.14510395791270
C            1.55048429338304       -1.15788038320527        0.10967848823974
C            0.37392639325217       -0.59130338511877        0.19329168031479
C            0.26218068631225        0.72607186050409        0.25367933947659
F           -3.63999122278378       -3.01549255679532       -0.17330127983347
C           -4.62658205101066       -3.35194188624654        0.53580307767597
F           -2.63850569644484        0.89834640617715       -0.38296076742423
C           -3.43700708872175        1.87646160797015       -0.34658166764121
F            2.45442826140238        2.37205481591581        0.32960874957921
C            3.37155052942484        1.52420337312521        0.13023047394315
F            6.57482821253100        1.08401729269213       -0.25177354621848
H           -2.00248323699621       -1.39190539370610       -0.54976851592024
