46
 energy: -10.077823481476 gnorm: 0.000180048787 xtb: 6.5.0 (97a52f5)
F            2.17344719984708        0.02260256772704       -0.10869387931337
C            0.81751668022522        0.01772966109167       -0.07163955129505
C            0.12766761443942       -1.15958584939450        0.15446258231175
C           -1.24782586386823       -1.16735342278954        0.19182509762979
C           -1.97168649275852        0.00685569092816       -0.00016236788995
C           -3.45217771604082        0.00090796201883        0.03640763081250
C           -4.12990060265370       -0.62417498599022        1.07978303053400
C           -5.52026376873317       -0.64042193738414        1.13810749932786
C           -6.23456701680441       -1.26912140914493        2.20816914479176
C           -7.58428314658376       -1.26988939301844        2.24375690302250
C           -8.35473455925444       -0.64457845548769        1.21132130182740
C           -9.74633045238964       -0.63386996173714        1.22398074593988
C          -10.47913940900616       -0.02919787315718        0.20610107704102
C          -11.95959412875808       -0.03429629384152        0.24165739783497
C          -12.64767113982155        0.32873480936291        1.39682116227528
C          -14.02339137704414        0.32685402719898        1.42591748370800
C          -14.74908465212711       -0.03957308458712        0.30691814176849
F          -16.10517601062946       -0.03978625606549        0.33789576794969
C          -14.07514529464427       -0.40407327549246       -0.84458915312772
C          -12.69958681422044       -0.40058657930357       -0.87991168702361
C           -9.80129275382461        0.58128109916504       -0.84578557619694
C           -8.41092565040649        0.60383140068648       -0.90017310864393
C           -7.69671640315834        1.23564797186674       -1.96842017883175
C           -6.34693568266058        1.24672263703256       -1.99788056076842
C           -5.57654691720916        0.62448661881363       -0.96358307626605
C           -4.18495984005101        0.62006024307504       -0.97268478380773
C           -6.25440879548769       -0.01102589382561        0.10432804365447
C           -7.67681151821995       -0.01728601693663        0.13859692929336
C           -1.26774699321924        1.18669046940765       -0.22837711889009
C            0.10787373688677        1.18970000103819       -0.26128771688108
H            0.68985658718077       -2.06540395857842        0.29665555488566
H           -1.77921839061628       -2.08834693816826        0.35838157038886
H           -3.56538717265852       -1.09486928026561        1.86387119633620
H           -5.67113570133782       -1.74455473997754        2.99196023103720
H           -8.10507872635992       -1.74623905832748        3.05596448252271
H          -10.26819847753637       -1.11320708239020        2.03200352835863
H          -12.08878831675717        0.62468900730326        2.26768230593321
H          -14.55813514922978        0.61220065287736        2.31440278092489
H          -14.64974716934919       -0.69103496422802       -1.70730344055956
H          -12.18092762367650       -0.69399976979128       -1.77615091428653
H          -10.36548461460696        1.05629643212904       -1.62749078900643
H           -8.26023063243354        1.70725023803912       -2.75446200084643
H           -5.82607551962667        1.72692795278327       -2.80777201074326
H           -3.66314562919452        1.09525059273103       -1.78319762022731
H           -1.81412229783226        2.10344343871686       -0.36762565896172
H            0.65496660221285        2.09981300589105       -0.43207039654422
