57
 energy: -11.996632985500 gnorm: 0.000435434652 xtb: 6.5.0 (97a52f5)
F            2.08140597063601       -0.37631454517215        0.68921948749509
C            0.73837010152273       -0.28649699536069        0.52091235273991
C           -0.02571136990869       -1.43056703465866        0.37198258021465
C           -1.38838825911803       -1.34413336800520        0.20671597871647
C           -2.02400436059793       -0.10438097909920        0.18557280317315
C           -3.48917151420190       -0.00557850303008       -0.01094751819343
C           -4.05851338992967        0.66522813949916       -1.05255468826648
C           -3.43224267671444        1.29705198987877       -2.20025952960024
C           -2.21179938101797        0.85489920255279       -2.71493004685854
C           -1.66292998961773        1.44025085985847       -3.83124883667496
C           -2.31366570589946        2.47951467006042       -4.47304860938462
F           -1.77305417764621        3.05067324898303       -5.57824736802745
C           -3.52619918153637        2.92487930645330       -3.97677174271641
C           -4.07876883206256        2.34318390966984       -2.86123542976134
Si          -5.87959564294490        0.50404969595119       -0.84251619761302
C           -6.64151299384996        2.17414827591525       -0.54811065691440
C           -7.51702775673930        2.71228830250443       -1.46612230873627
C           -8.02119468413367        3.98342090008082       -1.27686147661553
C           -7.64735753863411        4.71324058352132       -0.16643511282125
C           -6.77022552106432        4.17374013341805        0.75279643813493
C           -6.26681318584771        2.90265860309734        0.55940676604663
C           -6.64178558712288       -0.44693163326168       -2.25022441502457
C           -5.88229105955331       -0.78797610174632       -3.34843763270771
C           -6.45456318418970       -1.47063730002111       -4.40248425504499
C           -7.79145855774143       -1.81019496112516       -4.35538877142778
C           -8.55328353109495       -1.46840565428185       -3.25622405643398
C           -7.97616774659636       -0.78688076912349       -2.20296879568760
C           -5.80129842738760       -0.48507187592316        0.70065755406934
C           -6.75571463504078       -0.99895548375304        1.54426735299751
C           -6.35812906501230       -1.66154032943494        2.69015543114373
C           -5.01297129651565       -1.79977840379826        2.98271683042430
C           -4.05457975698683       -1.28223563866577        2.13709053403570
C           -4.43891923967114       -0.61489632241661        0.97337904923996
C           -1.24627291938914        1.04214074014041        0.33609178637105
C            0.11615595870496        0.94929576324969        0.50011635395281
H            0.46974543274662       -2.38502306359675        0.38583762210111
H           -1.97876941891807       -2.23542229480838        0.08136355045611
H           -1.70372512525122        0.03853246317223       -2.23366746877366
H           -0.72187894136946        1.10126122368436       -4.22664963859964
H           -4.02522530427258        3.73075902120322       -4.48484372023481
H           -5.02521722024435        2.68802381356731       -2.48468452003025
H           -7.79860672542529        2.13305428288987       -2.32900644781074
H           -8.70520342955275        4.40457655229165       -1.99518516225835
H           -8.04031488129206        5.70560467971099       -0.01741948392491
H           -6.47639280912112        4.74372804273347        1.61880845077354
H           -5.57558273772442        2.47116027585148        1.26361661488604
H           -4.84343907980166       -0.50897735652069       -3.37759453363377
H           -5.85868560423366       -1.73479928808618       -5.26063241356944
H           -8.24087418734227       -2.34145806603968       -5.17826910514060
H           -9.59777576387516       -1.73112967148476       -3.22029151417299
H           -8.56080251367684       -0.51035406800471       -1.34182786162869
H           -7.79820032312907       -0.87664299116500        1.30673157155288
H           -7.09851759792776       -2.06941203290052        3.35838982635478
H           -4.71135887552647       -2.31497419902395        3.87983730820402
H           -3.00895012509290       -1.38237432568784        2.36807582299904
H           -1.72788709187818        2.00456653100824        0.31613996732894
H            0.72043145993225        1.83170204519147        0.61368728493814
