51
 energy: -11.323425085745 gnorm: 0.000550008235 xtb: 6.5.0 (97a52f5)
F            1.99141232845500       -0.45172919455302        0.54927125367549
C            0.65415550464958       -0.24551857889647        0.62661884841064
C           -0.22889187719139       -1.27893201847822        0.37022158528603
C           -1.58593327043282       -1.06546163187855        0.42779223531405
C           -2.09866945687652        0.19107311721146        0.73345542730783
C           -3.56188769753468        0.36801266066247        0.80171119333949
C           -4.19622176545702        1.52884267435683        0.35738157206862
C           -3.43635010080123        2.63182172695442       -0.27407386540239
C           -2.67936643714126        2.41471626581926       -1.42808699528681
C           -1.96264621769021        3.43671866535785       -2.00219477362020
C           -1.97968536715096        4.70422874892202       -1.44786627064269
F           -1.27124560326748        5.71099052742043       -2.01709287660014
C           -2.72660252684821        4.93382209800226       -0.30617837558695
C           -3.44463623100858        3.91664226139858        0.27459525386732
C           -5.62729810750361        1.62212786137999        0.48078946231031
C           -6.35155981652604        2.72886958103986        0.03257549000959
C           -7.72367115089188        2.78107072937395        0.16138541421429
C           -8.40866680039661        1.73429706198143        0.73413414235427
C           -7.73364312406833        0.60221552623014        1.18573524142613
C           -6.33171777833013        0.54557010329109        1.05078338189473
C           -5.61666891520083       -0.61214963137449        1.47748320931482
C           -6.31098422985126       -1.65909914822722        2.03947494674627
C           -7.71207006683354       -1.64521842922967        2.21274383973732
N           -8.29130522208259       -2.70492074981800        2.77383135509971
C           -9.62012084339226       -2.61816186047528        2.90017180750494
C          -10.32539708830774       -3.69117053441520        3.48873658928617
C          -11.67820631885298       -3.65175431488700        3.63562305917072
C          -12.39995169308586       -2.53742862334271        3.20156980527324
C          -11.75495728790331       -1.48204328523365        2.63036626986420
C          -10.35477259193916       -1.48318778989325        2.46186779607579
N           -9.76483379564585       -0.41652354056303        1.89813049357566
C           -8.45219238717061       -0.50408136391651        1.78022292465199
O           -4.24528889154894       -0.69995959032673        1.33129981621482
C           -1.20011430039643        1.21859053032246        1.01604974096479
C            0.15605721356569        1.00226360412991        0.95626745682718
H            0.16927735016950       -2.24826890591253        0.12798080051446
H           -2.27562729846325       -1.87099276754549        0.24195647658427
H           -2.66222095284528        1.42963802903809       -1.86127573609779
H           -1.37546179990780        3.27128926786960       -2.88793220280150
H           -2.72809075249651        5.92289998142470        0.11614193865011
H           -4.01069517386717        4.09637044366335        1.17228632906806
H           -5.82889476081150        3.54713336644066       -0.42907371409956
H           -8.26244794635496        3.64541007965649       -0.18990413339088
H           -9.47903264426539        1.76958786694828        0.83716770054783
H           -5.76295085980613       -2.52379401682706        2.36157016959071
H           -9.76208064760367       -4.54554210021863        3.82081259978882
H          -12.19631399018434       -4.48137051179678        4.08753163887741
H          -13.47055416810238       -2.51502739503396        3.32055234159844
H          -12.30412706445775       -0.62009240186220        2.29439526162692
H           -1.57749993017812        2.18815830978546        1.28853697984044
H            0.85248255383229        1.79493729602593        1.16527709505807
