11
 energy: -1.423825820508 gnorm: 0.000143606771 xtb: 6.5.0 (97a52f5)
C            0.91404948840061       -0.06874282039908        0.02299326281928
C            2.43148180410187       -0.06566222082961       -0.03097944207636
Br           3.07190608105599       -1.72537541209860       -0.75821893992877
C            2.99081867670027        1.09796379971076       -0.82606060266543
Br           4.89652009111257        1.17781824337716       -0.75992635030175
H            0.54076512014016       -0.92825514387705        0.58325668622592
H            0.49770328063110       -0.12786914674875       -0.98386650903642
H            0.52661330179370        0.83836512524503        0.49205616799722
H            2.84952750035259       -0.03809252615555        0.98615676350018
H            2.60591718826346        2.05158281455664       -0.45546076664637
H            2.70145746744770        1.01262728721904       -1.87556026988746
