11
 energy: -2.146611983043 gnorm: 0.000661349141 xtb: 6.5.0 (97a52f5)
F            1.08648835276219       -0.09322473143183       -0.20093404409676
C            2.42782185974674       -0.10116498197845       -0.02947156376612
C            3.06812144887677        1.11360430896557        0.10411781705150
C            4.42550033565203        1.14404267805257        0.28361258697238
C            5.08870248628789       -0.05360341308832        0.32098774908417
C            4.37856371520398       -1.22783570258687        0.17823281212687
F            5.06692107742584       -2.39123700250360        0.21473890522243
N            3.06372839579108       -1.26498703421932        0.00512835768358
H            2.48503579427535        2.01756256782573        0.06526700964910
H            4.95329371364038        2.07773955144946        0.39152329026825
H            6.15517282033775       -0.10244624048493        0.45845707980460
