12
 energy: -2.351991271434 gnorm: 0.000587556756 xtb: 6.5.0 (97a52f5)
F            2.18424445680993       -0.01475258080968       -0.00129696565587
C            0.82678113929213       -0.00613225265955       -0.00104503904967
C            0.12043094971345       -1.19477850066468       -0.00107887081428
C           -1.25782826736869       -1.18670475928003       -0.00093218058251
C           -1.94106612847713        0.01144403234858       -0.00069219751884
C           -1.24266686509538        1.20081917210220       -0.00061575817147
C            0.13558364197009        1.19138862327946       -0.00077650570308
H            0.66884276194959       -2.12013053176055       -0.00130680975283
H           -1.80112589881835       -2.11738674978050       -0.00106546165618
H           -3.01860006140660        0.01828661609683       -0.00055231177545
H           -1.77410016201413        2.13832618029353       -0.00052736715991
H            0.69570443344508        2.10970075083438       -0.00122053215993
