12
 energy: -1.463405662777 gnorm: 0.000374273533 xtb: 6.5.0 (97a52f5)
F            0.36661988180623       -2.79073067783387        0.03149838459746
C           -0.12448665638070       -1.52038333419251        0.02323800359673
C           -1.46064783152638       -1.28381514349891        0.01686116246356
C           -1.92013120766519       -0.04629117337951        0.00635478129523
C           -1.08797549585068        0.97934698252233        0.00269370543365
C            0.21714771463912        0.77706960246075        0.00912429464707
C            0.70686407286689       -0.44823775185131        0.01897483411036
F            5.89165464946278        3.12467258440223        0.04718261581072
H            1.98845750817071       -4.14171257666186       -0.04950062844273
H           -6.09358635071297       -3.32770774982958       -0.02083059566442
H           -6.31908541875969        2.64291944436574       -0.03341488190726
H           -1.36298086767366        6.06572978973076       -0.03476167781827
