11
 energy: -2.192214203199 gnorm: 0.000643332902 xtb: 6.5.0 (97a52f5)
F           -2.12508782002456        0.12676581042144       -0.01028721422167
C           -0.77172521784813        0.03933982059548       -0.00726438548453
C           -0.04872023676872        1.21593991141143       -0.00290082981155
C            1.32141847324968        1.17198681902721        0.00266742424758
C            1.91933533113738       -0.06171170062996        0.00333462344086
C            1.12039407454680       -1.17971537526201       -0.00177146663454
N           -0.20001089437314       -1.16026440999481       -0.00724164760829
H           -0.57881387788519        2.15220006623700       -0.00362690573633
H            1.90754931496410        2.07637616365883        0.00651973563062
H            2.99303350964383       -0.15295437063685        0.00750801002023
H            1.57787734335793       -2.15796273482777       -0.00177734384238
