11
 energy: -1.354716017558 gnorm: 0.000782949164 xtb: 6.5.0 (97a52f5)
F            0.26543484856661        1.22355583067348        0.80994656098383
C            1.39384109716305        0.53302361535429        0.70806903132573
N            2.53744236371548        0.99319489725839        0.33279440754397
C            3.65656010640648        0.31671781039723        0.27668919844083
F            4.94379008723109        0.58378337197412       -0.08221319204702
C            5.99527435281088       -0.27019118157807       -0.06346522946648
F            7.20869573975258       -0.19024060461091       -0.37857744626481
C            8.77784109384803        1.34988355939528       -1.21029035714212
F            8.27376485714247       -2.53489969998540        0.06230641903357
C           -1.85811391349422        1.67892940834193        1.37020234982223
F            0.00608943058303       -5.29003702447718       -1.34620179919811
