12
 energy: -2.296972037341 gnorm: 0.000148475456 xtb: 6.5.0 (97a52f5)
I           -1.25112710628660       -0.04050450523343        0.03930306571229
C            0.83544206753011       -0.01326335935358        0.01640146033941
C            1.53936859954052       -1.19942730430258        0.00870483143883
C            2.92474847683946       -1.18220350865683       -0.00639340654842
C            3.59843245802747        0.02277209379889       -0.01370632903526
C            2.89352974945990        1.20975076817648       -0.00602473940096
C            1.50817428386200        1.19086716754986        0.00909924377740
H            0.99930631656294       -2.13378288415187        0.01466268404229
H            3.47469111133771       -2.10888669287864       -0.01241502487565
H            4.67603193512379        0.03684367177270       -0.02538664415478
H            3.41912204912829        2.15046150597582       -0.01152720492398
H            0.94394005887441        2.11082304730317        0.01569206362881
