68
 energy: -15.552287835559 gnorm: 0.000939207629 xtb: 6.5.0 (97a52f5)
N            1.18410710530009       -0.37434107729401        0.38455266652697
C            2.30909156589585       -0.22241729691947        0.12810285691441
C            3.66009386632889       -0.07627570601021       -0.17758638229849
C            4.22539570394772        1.18000620897699       -0.28499339945253
C            5.57333809950058        1.32586518801442       -0.60378401175321
N            6.69643513972160        1.47993062881585       -0.86662344846225
C            3.52280362983994        2.46195239699006       -0.10499048026733
C            4.22737198465373        3.65399925016928       -0.32200936832199
C            3.63686367927162        4.88284517778576       -0.17709378347572
C            2.30304342569882        4.98653941679673        0.19945384427484
N            1.67697401055346        6.26852406536005        0.34440384247003
C            0.41816469729109        6.64200838795092       -0.17385963342168
C           -0.50461895644669        5.93005033422636       -0.93923632464106
C           -1.66533704654296        6.55379399156962       -1.32510620512433
C           -1.92494945163352        7.87875202900752       -0.96675796438482
C           -1.02274865840602        8.59833552184094       -0.22129437102709
C            0.16163765981792        7.97801241306720        0.17687848204499
C            1.29602666919459        8.44838257381919        0.93586294909372
C            1.57754857177879        9.67434140574894        1.53911832388395
C            2.76201098930686        9.81651632615590        2.22048974642315
C            3.66787565636853        8.75723890247057        2.31472924723966
C            3.40357948971532        7.54489585253178        1.72677827068649
C            2.21017260868268        7.38515027438733        1.02364324854500
C            1.58867011034891        3.81565305732238        0.42576670796225
C            2.18123175453441        2.58806378161334        0.27549915652109
C            4.35977688546574       -1.35764312306437       -0.37518795198075
C            5.73061592225930       -1.48444285743986       -0.63098355453936
C            6.31840298210868       -2.71029753079565       -0.80922806361827
C            5.56807696539409       -3.87873963289713       -0.74634211883505
N            6.18290920822693       -5.15732845619698       -0.95479211950357
C            6.00245460902324       -6.31156106293070       -0.16245576974361
C            5.24767408590806       -6.52167244452161        0.99086060642466
C            5.26689903794972       -7.76322501959633        1.57700269694945
C            6.02904220440109       -8.80279233429187        1.03853778762597
C            6.78623336600680       -8.61096581782521       -0.09168402854546
C            6.77691568965613       -7.35454494198377       -0.69772498148710
C            7.45697750910173       -6.83239374284787       -1.85928902111417
C            8.33493108275522       -7.41537543989768       -2.77342150706995
C            8.81438414564101       -6.64817938213773       -3.80742025215117
C            8.43034244514681       -5.31244518172515       -3.94871489002218
C            7.56669868384194       -4.72579155168849       -3.05701721440766
C            7.07759830274029       -5.48670067306019       -1.99580782208667
C            4.20620073552840       -3.77490548320691       -0.48843543947241
C            3.62226193639233       -2.54768616850813       -0.30625409676041
H            5.26084317522170        3.59792396021027       -0.61594358457259
H            4.19333350525072        5.78230642877795       -0.37352956730835
H           -0.29362092842943        4.91566959887461       -1.22566024180931
H           -2.38731067302294        6.01441412299454       -1.91580800762052
H           -2.84456285480099        8.34298657321747       -1.28249696303188
H           -1.21224987101084        9.62049925335768        0.05445036414080
H            0.87183321779525       10.48270872711093        1.46617756129972
H            2.99470914952859       10.75667617357371        2.69251619443015
H            4.58690659136172        8.89402465091014        2.86040422488547
H            4.08967331972879        6.72170119156953        1.81115699906895
H            0.56166068773520        3.88854770873434        0.73811579348947
H            1.58658810379684        1.71512340113267        0.45841092426189
H            6.35171773622250       -0.61309109242809       -0.69383893385774
H            7.37712528761035       -2.78493035278664       -0.98634157802598
H            4.67518611508929       -5.71423550141774        1.41018346676264
H            4.68734655291165       -7.93906585216958        2.46824037166375
H            6.02535490012508       -9.76708758883961        1.51923732251724
H            7.38055018418369       -9.40405447432629       -0.50953138215466
H            8.62073401525292       -8.44613552601795       -2.66070483819840
H            9.49357214596000       -7.08284956468627       -4.52202140940572
H            8.81674209029186       -4.73466898599793       -4.77214013521786
H            7.25518559603957       -3.70331830055876       -3.17135673259383
H            3.61306722804056       -4.67189462607414       -0.45647923387340
H            2.56590662287808       -2.49077218491590       -0.11010684448127
