84
 energy: -18.664545584000 gnorm: 0.000449739359 xtb: 6.5.0 (97a52f5)
N            1.33771179734713        0.31205525248107       -0.30850061252470
C            2.49211684538433        0.18165018992973       -0.23593604063652
C            3.87718978089494        0.05019145915088       -0.17423780172590
C            4.45510954622402       -0.99243212373032        0.52851278419527
C            5.84011281710610       -1.09681356727919        0.63040073891031
N            6.99415578629918       -1.21341389719117        0.72814159450923
C            3.73010873006860       -2.06096254824232        1.23282034571045
C            4.45653312900968       -2.96166481647859        2.02556968806393
C            3.85012641479387       -3.99498035806892        2.69004275419872
C            2.47584599413131       -4.19495131434682        2.58719603590446
N            1.84016631082759       -5.29872173075114        3.24011390871269
C            2.25756136264515       -5.68702916048446        4.55818739320947
C            2.19818884406962       -7.02027371218779        4.95332941727496
C            2.58595939192263       -7.39484554824977        6.21986950834235
C            3.03764529506625       -6.44493499570552        7.11477414677057
C            3.09894200518662       -5.11765659550173        6.73849122556660
C            2.71213690225800       -4.74080593546714        5.47241431571366
C            0.71484891850175       -5.95342848999592        2.63619657494923
C           -0.42880195309372       -6.17342535349704        3.37572907529484
C           -1.55121107929213       -6.77566793860052        2.81516571025530
C           -1.54564980525477       -7.17313636643908        1.50949688441988
C           -0.39759054548898       -6.99340653729864        0.70829520752989
C           -0.35638294231189       -7.41859466382718       -0.63851184395860
C            0.77412756759490       -7.26308454894016       -1.38349910440048
C            1.91480829501774       -6.68306134934864       -0.82196480427285
C            1.90413197698370       -6.25853126670456        0.47374821703434
C            0.75054229635297       -6.38606011136600        1.27187889086075
C            1.73902402140199       -3.31223285458351        1.80113427173032
C            2.34716261630530       -2.27134100549699        1.14952741643581
C            4.60443162278501        1.10837892982986       -0.89194416145201
C            5.98741339710431        1.10760649919670       -1.11844697338785
C            6.60163883753601        2.11270240096582       -1.81876394939775
C            5.87007023311793        3.18637351580033       -2.32069417362234
N            6.51708657262059        4.26157050651993       -3.00946818657742
C            7.59078285270827        3.98437062716523       -3.92178102282015
C            8.62471059903151        4.90006839204466       -4.09412722050740
C            9.64727866484648        4.64559851670375       -4.97975284010054
C            9.65494002196854        3.47350867850651       -5.71000541612651
C            8.63495879958418        2.55614473275665       -5.55152161201210
C            7.61153471728454        2.80832639078922       -4.66627076092594
C            6.03787480633044        5.60759842509424       -2.87344127782070
C            5.81246164392224        6.37278713747829       -3.99900127736574
C            5.32220418877124        7.67200018159436       -3.90720270306357
C            5.05628626064470        8.22844434750368       -2.68961652084147
C            5.28556139086567        7.50163539086246       -1.50154537199242
C            5.04228713783171        8.06228791623350       -0.22762604412417
C            5.30072641929119        7.35223324725033        0.90654328872450
C            5.81675775120515        6.05607617280921        0.82520833632044
C            6.05735600501867        5.48624596416218       -0.38992603160707
C            5.78826309678136        6.18070577203302       -1.58547172300043
C            4.49533339545265        3.20708918837092       -2.09955691933403
C            3.88261818342567        2.19234318784930       -1.41257327566717
H            5.52217529996590       -2.83676497691523        2.10518381597582
H            4.43221456324449       -4.67957602679280        3.28177024316958
H            1.84967988925525       -7.75509075205855        4.24896452579539
H            2.53733065157846       -8.43072837547431        6.51294754315761
H            3.34106069734315       -6.73914303172206        8.10608296817102
H            3.44786337255327       -4.37526354921102        7.43739592000744
H            2.74498099220485       -3.70660839638992        5.17776092178230
H           -0.44716502309795       -5.85030913200768        4.40173348194918
H           -2.43206613958617       -6.92371575609979        3.41802135691798
H           -2.41592876181689       -7.63640444762080        1.07798370882001
H           -1.23242839050222       -7.87266805204164       -1.06826813319872
H            0.79368256404970       -7.59205896241061       -2.40951466221301
H            2.80573695117160       -6.57170383466032       -1.41790088572729
H            2.78634067784713       -5.82063396079141        0.90327050267333
H            0.67635551149023       -3.45984328846680        1.71870330443461
H            1.73474395767712       -1.61077529382489        0.56795076006569
H            6.59645869091700        0.31288518465265       -0.73502642042694
H            7.66704108574534        2.09796418522668       -1.96934369602621
H            8.61430578939430        5.80878926181221       -3.51823763270171
H           10.44271627469132        5.36211264972909       -5.10305057110073
H           10.45556428698614        3.27524302368204       -6.40354986644474
H            8.63880891445107        1.64247281952923       -6.12296100173646
H            6.80715139651356        2.10366832934551       -4.54853302758008
H            6.00695467326381        5.93762057826939       -4.96349232349323
H            5.14824643886677        8.23944186639943       -4.80665081287359
H            4.67574342618352        9.23282422845282       -2.62174492505865
H            4.65260630927086        9.06356950523902       -0.16513035307248
H            5.11216074456413        7.79100700121115        1.87257937537484
H            6.02490583326797        5.50643445518223        1.72846463006931
H            6.46164345936267        4.49236544442541       -0.44696657810220
H            3.92123392170335        4.03206132811577       -2.48343568739328
H            2.81724502338867        2.22255174191126       -1.26544654258215
