72
 energy: -15.888467187120 gnorm: 0.000842118960 xtb: 6.5.0 (97a52f5)
N            1.47737066605115       -0.38480781345102       -0.04716117581377
C            2.62704096260546       -0.21482205674190        0.01911451116769
C            4.00743498254374       -0.05146191658227        0.09863933001636
C            4.55253614430729        1.16612544674113        0.46883935505605
C            5.93309359120716        1.34251805048570        0.50739679957275
N            7.08339415659693        1.51223619418907        0.56331604350698
C            3.79348923703188        2.37353931834767        0.82741823061743
C            4.48806740321348        3.57731924388926        1.01695622251726
C            3.84605914475565        4.73814085559378        1.35965764922280
C            2.46640829645011        4.75797074046879        1.54954116897684
N            1.79126350922262        5.96709222131070        1.91035534025733
C            2.21145968689990        7.21725716180263        1.34414253625683
C            2.19683847941127        8.38569481244546        2.10088760749050
C            2.59555312062692        9.58284168005718        1.55067498027725
C            3.01554745472381        9.63541370287867        0.23614454065852
C            3.03647013070968        8.48481671488699       -0.52709529039930
C            2.63891582684817        7.28647329466075        0.02078948903269
C            0.69361294400531        5.92898572206899        2.83388119361372
C           -0.39930056589120        6.77756836634804        2.67995154401952
C           -1.44611771373732        6.74273758239360        3.57312317658379
C           -1.42120280318997        5.86073875347886        4.63542108065860
C           -0.34479438838458        5.01174722095804        4.80090949457584
C            0.70298119960274        5.04437738138385        3.90906327693582
C            1.76191957680494        3.56892059662343        1.37451556688572
C            2.40543745883553        2.41302102112369        1.01659501805509
C            4.76633590835001       -1.25836221560774       -0.26185451999594
C            6.15281817953740       -1.39898445506186       -0.11418633604988
C            6.79645543931027       -2.56182879228063       -0.44839060566831
C            6.09410217981428       -3.64828943718366       -0.96522989652773
N            6.77095854453654       -4.85600927540753       -1.32708520049742
C            7.87077163410898       -5.32671170529617       -0.53419163009526
C            8.97504512819955       -5.92931479050246       -1.13056413207463
C           10.02492932835406       -6.38397411717890       -0.36520798931963
C            9.99171934048419       -6.24542202079488        1.00837647547135
C            8.90388073950981       -5.64881786659839        1.61462112368251
C            7.85302106650067       -5.19296859093663        0.85160235841458
C            6.36152718677691       -5.58693984000533       -2.49232541616354
C            6.39682361291266       -6.97859185434363       -2.51146165825420
C            6.01424277921152       -7.67486548007691       -3.63557872246727
C            5.58958151906692       -6.99522177083212       -4.76020083093378
C            5.54772543766615       -5.61493557139769       -4.75634658629187
C            5.92949066928955       -4.91642200496409       -3.63359455120585
C            4.71597008872344       -3.52378738448184       -1.12403130027097
C            4.07362665283674       -2.36517263762892       -0.77431931294530
H            5.55646277489754        3.58294919009326        0.89001051698394
H            4.40244083500598        5.64773257212502        1.50350380085845
H            1.87749801127770        8.33616561061404        3.12702309730722
H            2.58104931526219       10.48030222723344        2.14698677465396
H            3.32681229443073       10.57328183970889       -0.19374266562053
H            3.36277464123034        8.52518407698931       -1.55335779337055
H            2.64333398480042        6.38794326886961       -0.57101669879525
H           -0.41717522992201        7.45558304426393        1.84487553793513
H           -2.28698980765208        7.40391010634056        3.44254619176729
H           -2.24095142574490        5.83471282036929        5.33442264279906
H           -0.32418836648066        4.32374927676036        5.63008195917881
H            1.54920917295554        4.39255959040605        4.03798426959048
H            0.69393428117073        3.57810773053754        1.50587631123207
H            1.81636969987650        1.52827492328122        0.87551333068640
H            6.74072080377733       -0.58499662063689        0.26193597376113
H            7.86329058347688       -2.64429512964174       -0.33469254994433
H            8.99918528304054       -6.02520506771256       -2.20182015872608
H           10.87477715785577       -6.84739712141107       -0.83874504175618
H           10.81402523910145       -6.60205367388213        1.60662170982908
H            8.87690524635531       -5.54103192507839        2.68650641176796
H            6.99817322673754       -4.73567992540492        1.31822802487891
H            6.72044874581609       -7.50228745262221       -1.62919214078356
H            6.04565469130405       -8.75204357591282       -3.63788367856893
H            5.29140752633184       -7.54126549479035       -5.64007938516214
H            5.21783744005732       -5.08373889762501       -5.63402256965316
H            5.90995578382002       -3.84069542669905       -3.62781512204400
H            4.16081721777637       -4.36028448303425       -1.51084267071187
H            3.00638693699594       -2.29720596791171       -0.89261503664413
