130
 energy: -29.165800252396 gnorm: 0.000856926439 xtb: 6.5.0 (97a52f5)
N            0.08171718544694        0.76542894236845       -0.58899465998644
C            1.22159688631860        0.53143698116831       -0.56100163455960
C            2.58916584871064        0.26770758466447       -0.55144857793331
C            3.12090179921789       -0.69561768273112        0.28654722142440
C            4.49728867784490       -0.90722048536618        0.34271329029102
N            5.63957321275959       -1.12210530257574        0.40747395832333
C            2.35408678200498       -1.55918833667868        1.19759785520650
C            0.95340767924322       -1.69005414534791        1.17497250238890
C            0.28225298782394       -2.54801074586323        2.01405381700742
C            1.00460425937577       -3.30330502354025        2.92876689575576
C            2.39554993782503       -3.17541469385362        2.98466927544902
C            3.06042779856457       -2.33126402408187        2.13281926792475
C            2.93789005807944       -4.08490504855249        4.08280334654154
C            3.98117310532237       -5.07700927753376        3.57478195374459
C            3.89449217492401       -6.02931746965120        2.58195617765056
C            5.00173765677118       -6.81163458842551        2.31068612852948
C            6.17865090426932       -6.64287715895586        3.02297373389899
C            6.27172989209316       -5.69060766310132        4.01806151324282
C            5.16443566542555       -4.90236074543414        4.29505955926990
C            4.98020645900970       -3.82507074582574        5.28107582422081
C            5.85575555874911       -3.30333146148588        6.22218723693424
C            5.41870081371142       -2.28540258954585        7.04608319714802
C            4.12859184398540       -1.79048563503728        6.93844956785202
C            3.25180725732571       -2.30510813131691        6.00155109766555
C            3.68351029613722       -3.31982002197548        5.17419545853005
C            1.68246993074422       -4.76450142545297        4.61694221393359
C            1.54754999602210       -5.68351358522960        5.62579429961751
C            0.27660748322378       -6.14544219696102        5.97142659645436
N            0.12418468364261       -7.07268806318080        7.04861344791364
C           -0.91186714935769       -8.06492171539844        7.01259827819862
C           -1.58581218455099       -8.43211025516143        8.17432495719306
C           -2.57272174510163       -9.39104407191413        8.14017610103803
C           -2.90419860111867      -10.00130659054830        6.94633813918218
C           -2.24428713186975       -9.64863505630485        5.78548746145234
C           -1.25726125431343       -8.68981945796074        5.81708826441368
C            1.03040679651324       -7.02381953615814        8.16112162654477
C            1.46655291867743       -8.19398041712769        8.77680075813993
C            2.35075394589674       -8.14533859791390        9.83070066505024
C            2.81609772745851       -6.92849421330219       10.28943520519330
C            2.39138312583832       -5.75855073279878        9.69115539644686
C            1.50549657325199       -5.80464803027378        8.63902372180730
C           -0.83586006310521       -5.66841844612268        5.26576492015362
C           -0.70412642151433       -4.74543874112229        4.25344016215494
C            0.56562666057565       -4.28028651086813        3.92721589560587
C            3.36861146987666        1.11416832370225       -1.46820427130320
C            2.75665546976740        2.24496602240332       -2.04220297323533
C            3.41682234761971        3.08296206829462       -2.90979645400922
C            4.73249931038743        2.79517560868187       -3.24964202814704
C            5.35104542693907        1.66280280214258       -2.71185387003281
C            4.69420937300587        0.84123918988808       -1.83261064400140
C            6.77212496416365        1.56127496775825       -3.25467837974249
C            7.82191989768520        1.50759796329302       -2.14740741267986
C            8.08006189099387        2.39227819626169       -1.12238433235617
C            9.08649225429126        2.09394241705248       -0.22265361297189
C            9.82288328284361        0.92640355892004       -0.34660390221942
C            9.56834770967123        0.03615634614614       -1.37039924256785
C            8.56023227064308        0.32970621296459       -2.27673465347875
C            8.06974181975091       -0.42772261256593       -3.43961954963900
C            8.49200918343967       -1.63657779013963       -3.97319601987113
C            7.85533707409481       -2.12793058622738       -5.09534506439622
C            6.81189037902641       -1.42914985426015       -5.68173100897584
C            6.38512572798186       -0.22481963636078       -5.15375421021368
C            7.01631001566059        0.26993468819311       -4.03249697672740
C            6.89084120269031        2.79662625186257       -4.13926672762545
C            7.94629007314538        3.22949859273365       -4.90042293446531
C            7.80873574419395        4.38189114669293       -5.67580991311162
N            8.88573100192694        4.81177987091217       -6.51168288977744
C            9.10373343829406        6.20948141298558       -6.75323327598756
C            9.51137996336211        6.65930878624419       -8.00625347374143
C            9.72404103374823        7.99973394042011       -8.23582241969955
C            9.53542177968824        8.91468186047888       -7.21852975292536
C            9.13281225190692        8.48391036562899       -5.96960237972185
C            8.91841740465909        7.14416925999954       -5.73788981516318
C            9.75889332069916        3.83829878884623       -7.10412825463853
C           11.12086125227424        4.09291366455303       -7.24084402909932
C           11.95827497871632        3.15311587463278       -7.79798879744864
C           11.45226575226629        1.94226849183022       -8.22868603514761
C           10.10342122732607        1.67480784360176       -8.10137334921076
C            9.26402914652810        2.61354548096542       -7.54630205512282
C            6.59607382805718        5.08302677518081       -5.64424650307544
C            5.53500191112303        4.65160025406895       -4.88142027303458
C            5.67685193923940        3.49288919922120       -4.12500394558718
H            0.37500795947306       -1.10407805500463        0.48778691609157
H           -0.78931551673467       -2.63658795402555        1.97732820900289
H            4.13192317671695       -2.27136084467496        2.18429660599165
H            2.97569662664658       -6.14844560011579        2.03490150784083
H            4.94845050138336       -7.55882129008948        1.53608079938781
H            7.03202982683190       -7.26070042689409        2.79630369132325
H            7.18219571755785       -5.55100160235871        4.57362859342681
H            6.85516381870135       -3.69348041274536        6.29975568044599
H            6.08885188109184       -1.87083854316576        7.78119601313499
H            3.80487786259327       -0.99622157530986        7.59078481233790
H            2.24706297648260       -1.93147662956939        5.90902702432408
H            2.41610000182934       -6.04369126203872        6.14469508669435
H           -1.32752307051329       -7.94756654601182        9.09962477620362
H           -3.08769416780240       -9.66546370367224        9.04622992169961
H           -3.67674023847784      -10.75226838121438        6.92071560108127
H           -2.50144399879859      -10.12548693807433        4.85385110150141
H           -0.73192073445407       -8.41819416885377        4.91821313604998
H            1.11076770856398       -9.13937373852236        8.40636994063135
H            2.68282746516142       -9.05861000098479       10.29663286137221
H            3.51009963018097       -6.89182979910363       11.11309340507370
H            2.75440044383347       -4.80835316857785       10.04730367204676
H            1.16622571844431       -4.89569648288967        8.17370915613987
H           -1.81177645545595       -6.02456886618327        5.54470696774106
H           -1.56263208426717       -4.37621702728412        3.72093249845410
H            1.73334378301823        2.45660325409464       -1.78607563687901
H            2.93198327339044        3.94739459608770       -3.32796763166205
H            5.22704098702897        0.00091179692713       -1.43522122249172
H            7.49523363603492        3.29089435931361       -1.03235691233057
H            9.29595405127001        2.77420980377530        0.58635983573373
H           10.59993733476764        0.70794268111838        0.36739184776354
H           10.12989219432202       -0.87595525538481       -1.46930010620446
H            9.30204216624195       -2.17302236703941       -3.51156557899114
H            8.17288840022166       -3.06636504312054       -5.51942556953499
H            6.32670822834820       -1.82835989089641       -6.55718336749599
H            5.57667785953239        0.32809201195741       -5.59913668403044
H            8.87014358038098        2.68187284584717       -4.90045493085705
H            9.64880081929571        5.94183972998309       -8.79620719863726
H           10.03694153830514        8.33535970238339       -9.21095108201765
H            9.70264172821238        9.96386651646071       -7.39926035541884
H            8.98707407390543        9.19712696397289       -5.17491046564701
H            8.61318426309187        6.80074771591234       -4.76493124245199
H           11.51087960304130        5.03310051918318       -6.89224932862357
H           13.01105823912015        3.36169110023997       -7.89584971351186
H           12.10909945334620        1.20688866297895       -8.66363679871561
H            9.70744733983289        0.72993780795478       -8.43592311306403
H            8.21140398556308        2.41239841939853       -7.44986823918629
H            6.49762849744743        5.96529336290439       -6.25167851825869
H            4.60311276553704        5.18857308849300       -4.86872665113221
