130
 energy: -18.259775485994 gnorm: 0.048847786623 xtb: 6.5.0 (97a52f5)
N            2.44217617823820        0.56876940444950        1.64243784678849
C            3.32343370476856        0.57930042325322        0.89519730140024
C            4.42973657507077        0.53076758308639        0.11444474298745
C            4.71984231630352        1.06841872828689       -1.06981004507706
C            5.96126606890927        0.76509964241068       -1.62489391106372
N            6.97912259932817        0.47919316399065       -2.11706525225672
C            3.79480660203249        1.94703414850458       -1.78208081046508
C            2.58916397629388        2.31358274227477       -1.24480423995306
C            1.75586816838115        3.10389050936443       -1.88206774274730
C            2.05445454697592        3.57791124121685       -3.08340764930561
C            3.24128818845208        3.25199613690080       -3.67390595558466
C            4.09669164461231        2.44080922233373       -3.02163098824963
C            3.48735167771033        3.80042592588781       -5.08962497459685
C            4.90638608560309        4.38777328094256       -5.20555736005088
C            5.49565704870679        5.42160174824335       -4.56233783262050
C            6.75339767844549        5.72547248196278       -4.85295134442404
C            7.45257241570163        5.04215388745094       -5.75582670423820
C            6.92923077167469        4.01771833798044       -6.41269633757042
C            5.63906757252574        3.66795797905089       -6.15575443600727
C            4.79571542126551        2.59110808148539       -6.70202128786182
C            5.05474610974706        1.63210453723481       -7.62415401160136
C            4.10227377201730        0.77207416337618       -7.92694990549100
C            2.90991183202640        0.81435188168866       -7.35227514970307
C            2.60409508824084        1.72334418283103       -6.44395268210575
C            3.53506831056353        2.63897981607752       -6.09726548035092
C            2.48352365217944        4.81343428374354       -5.47843083959954
C            1.51880271009625        4.66966925466126       -6.35272452814104
C            0.60490928961403        5.57336423276605       -6.66831046082278
N           -0.35421961061726        5.41140766114088       -7.56999596668176
C           -1.31121575340149        6.35344674587346       -7.87399504544537
C           -2.21149324536971        6.12216133093611       -8.87984066306815
C           -3.13929251401529        7.01113349704586       -9.16980884838281
C           -3.22642225661038        8.14743309346877       -8.49068476574948
C           -2.38551005181392        8.40169132962629       -7.49437582736219
C           -1.45973678314325        7.52679820256423       -7.15983731645536
F            0.75320907037688       10.88907892818303       -5.80741095862020
C            1.64760191265791        6.50198296519975       -9.81540702964282
C            2.17448371523176        6.52671461740503      -10.98956396594726
C            2.47742701192802        5.49665717180142      -11.77620014124659
C            2.30060396859549        4.19633103902857      -11.56659325295103
C            1.80110163087055        3.61688839332209      -10.54776042633474
C           -0.23937134341846        0.46755092245332       -9.82529391015332
F           -0.90254951854985       -0.06778569879608       -8.95143190744936
C           -4.37807709918175        6.03790403662187       -5.37813801322741
C           -0.02664952760338        7.03659256531018       -2.85088330998673
C           -0.42674481676926        7.25032677441184       -4.03963968042220
C            3.50474249282653       -2.81446783507687       -0.23700184307117
C            3.94198121175320       -3.72784006106812        0.58546254745973
C            4.72456128641657       -3.56687747021289        1.70693797260700
C            5.11462351308036       -4.56833438577576        2.45583458221069
C            5.14069007020098       -2.15367245675609        1.95765581515743
C            6.48142594022687       -1.80726060236389        1.57288674879736
C            7.17143893532151       -0.79096495548069        2.05009892974609
C            8.44071729980396       -0.47845188858308        1.85921441501970
C            9.35648085520651       -1.03754886205041        1.04143967997281
C           10.70154394752915       -0.70884971684037        1.04344805137262
C           11.30931179859322        0.13229541754307        1.91733893767577
C           10.77891249056930        0.75691274584920        3.03316355312468
C           10.32943424627511        0.15846290260301        4.12916497448846
C            9.64251269285484        0.68676771897623        5.12569419554544
C            9.20751651721002        1.95734881586931        5.25994352257598
C            8.45003322407977        2.41044049869995        6.32991626706463
C            8.06369666948297        1.65980599818287        7.32723277660962
C            4.64874588880875       -1.55708193043628        3.17117367926751
C            5.17417106113603       -1.64770890022811        4.37505755069232
C            6.22130367615851       -2.38681861250345        4.71369699196333
C            6.79353037558585       -2.40421799074872        5.91512536892270
C            7.59494367622228       -3.42796128426906        6.25276432193041
N            7.77415653084232       -3.83981734649480        7.47410522882521
C            8.35888525093480       -4.94356691716739        7.82378020609708
C            8.57057220600207       -5.45062915990629        9.06625393940066
C            9.15361881105967       -6.68317925063916        9.31301160314847
C            9.56390285455567       -7.51306244309961        8.34948865097355
C            8.47494486667805       -7.98188121629843        3.94839700476005
C            9.59137359112446       -7.72553826677731        4.55467980792633
F           10.28416925965119       -6.59233023943294        4.71247644259353
C           11.60766715818041       -3.80759861224498        8.86816745352274
C           12.79587431027603       -3.34971496239179        8.67763246167192
C           13.49400109178226       -3.46560887043659        7.60225515517406
C           11.34717516835966        0.07039480870291        7.99588968071341
C           10.75041069599373       -0.29825844892488        9.06454805234265
C            9.65299762530962       -0.97139687475819        9.14934088301291
F            5.88261693528225       -1.30702868442845        7.48447727983098
C            6.58105832401759       -5.66118350962467        4.81350284332070
C            8.03450919000586       -4.71791706635274        1.93734686871950
C            9.32176846001297       -2.73837882247648        3.93312574608720
H            1.01876140045903        2.28732236627131        1.73490193553968
H           -0.34737716074562        4.56476202286881       -0.82629507103822
H            6.66238020771514       -0.76426764832662       -3.92331401088578
H            3.24945757576165        6.27953991583513       -2.93972202414816
H            7.01374608572064        8.06087820424500       -4.22444495169536
H            9.09692803167862        6.49950931535702       -6.92505761963374
H            8.45308196448312        3.49768012202415       -8.77721373846442
H            7.08289881237625        1.06312261684720       -9.44534075280774
H            4.70151203868294       -1.21860722036626       -9.40121834050337
H            1.58907564055626       -1.20632451915446       -7.25121013132092
H            0.66498205441105        1.63161811172639       -4.45565955817173
H            3.07757067785287        3.94568245595233       -8.50343906136997
H           -1.45351346546860        3.32001426356593       -9.68852075851864
H           -5.41150209968110        5.31890181733029       -9.57326953051508
H           -5.43104344361178        8.68982766011999       -7.87041336121008
H           -2.25202448023773       10.69499416523986       -5.93821256996574
H            0.74364989488924        8.39654852599746       -8.60246043858933
H            2.41761448369929        9.06501111050936      -12.89432146914365
H            3.45915536043813        3.77473203393976      -13.68656338020813
H            3.77555908827594        1.44617269660478      -10.61873294579260
H           -1.38647645736894        7.58663152326589       -4.25645276573020
H           -2.38322005484530        5.19424308538318       -2.66127736916395
H            2.06184616429632       -1.02453409680443       -1.01930525763080
H            2.83547133078259       -5.90422975215261        0.74113273007227
H            4.68529600987102        3.37636912253616        0.80355892822104
H            9.00829305437421       -1.77772586810726        0.33907463497557
H           11.33140886410617       -1.16217474997244        0.29524908758623
H           13.03782000388871        1.04714095875499       -1.01206003408626
H           12.38440667891398        3.56242037798824        1.54861927804536
H            9.46450038032690        2.65626716938151        4.48068035751459
H            8.15735106496521        3.44842528412409        6.34488315099409
H            5.06760018210293        1.50162685453989        6.42728768133379
H            3.15782970376590       -1.45772649246635        5.76022133844263
H            7.88360309135996       -0.92021253442903        5.55402543281856
H            8.25476017865052       -4.85364522546936        9.90682518227078
H            9.27128840157220       -6.99228700750135       10.34000544863411
H            9.99625831279853       -8.45550918291305        8.51997114742067
H           10.71300730816568      -11.68573167468518        6.55592970626800
H           11.18484535775771       -6.54823453819023        5.22415135477669
H           16.70829576302642       -1.87030845452101        7.38163690305849
H           13.72359650422441        0.36704261789770        9.53911462866244
H            9.19551048640951        2.18189277329089        9.53445170456779
H            7.13629624187611       -7.96387088501029        6.72204896242076
H            4.75280378865334       -7.34173918294558        3.00935825010858
