98
 energy: -20.480233156700 gnorm: 0.000513724360 xtb: 6.5.0 (97a52f5)
N            1.69547059065964        1.11204338762357       -0.57339711581310
C            2.76836244358262        0.72616983286448       -0.34809257505607
C            4.05599830238477        0.27477613360747       -0.05944986417177
C            4.67080533148837        0.70420148261965        1.08060215259748
C            3.98953091363850        1.42120016300077        2.15504762053313
C            4.47135598696178        2.65445710252860        2.58878529460899
C            3.80018981484900        3.42804119548579        3.52088682168880
N            4.31685146216358        4.72847066877974        3.85446623818713
C            4.70693499116067        5.60643018199184        2.79066579337514
C            5.77248310316172        6.48931528413995        2.93983415117533
C            6.14639786570620        7.31777696173540        1.90762535581224
C            5.46637450287774        7.27954219123168        0.70755474363551
C            4.41015779798584        6.40752271423961        0.54211105137967
C            4.03364145657365        5.57831697305634        1.57227779657430
C            4.47235688783041        5.14030268772347        5.21995688655215
C            4.21693601491413        6.45564603448847        5.60025303308255
C            4.27121096405737        6.82545392419872        6.92336757332350
C            4.58149239884167        5.89254257522869        7.89080961285076
C            4.84346935004849        4.58689683553365        7.53049428261048
C            4.78953240923480        4.21264418942165        6.20806545151058
C            2.57655766459248        2.94947025802374        4.06457261930726
C            1.84698683718506        3.78138236403748        4.98029343566411
C            0.68592031282598        3.52508974241943        5.63995882159672
C           -0.02727367650549        2.34605395036818        5.44112636093131
N           -0.60313670368426        1.35452098572327        5.25204380220059
C            0.14657134240636        4.49534017395410        6.59643369722571
C           -1.16903418311683        4.39511845000654        7.04618893025415
C           -1.68407353465689        5.30068946789773        7.94468471962455
C           -3.11379185445113        5.14725271881910        8.42144149577306
F           -3.87084353098704        4.73406120420647        7.38622300501584
F           -3.13930401092268        4.22988757975397        9.40788401626598
F           -3.55507895514610        6.33503558348597        8.87914051092269
C           -0.89093939296345        6.32336399164468        8.42592000401624
C            0.41916098294949        6.43380806069850        8.00747987128827
C            1.33015422440735        7.52755740766890        8.53049468934276
F            0.62015700700405        8.36474034484120        9.31021688811514
F            2.31987029263864        6.95270667772760        9.23862832849710
F            1.84796649588635        8.18844856408334        7.47803975176614
C            0.92819080432394        5.52900651534934        7.10853796446645
C            2.12666563982154        1.69471032458087        3.66496226245516
C            2.80213805315305        0.91107943206793        2.75001575851113
N            2.28702691008086       -0.39451974901688        2.46363775925809
C            0.86413582735918       -0.60603102045844        2.57979896802012
C            0.34955768850554       -1.41397612275457        3.58964155978070
C           -1.00929596420880       -1.52639084672479        3.76799705808331
C           -1.87561708768886       -0.84220269452199        2.93967176669033
C           -1.37940817731041       -0.05202367947991        1.92313414243108
C           -0.02281427262819        0.06328258431793        1.74177034679584
C            3.13087005874376       -1.53960549853971        2.26713981183926
C            2.76107945068987       -2.53125641245202        1.36222743710281
C            3.58229406750442       -3.60944710499594        1.12749487337067
C            4.78106202446705       -3.72442073055767        1.80115659224349
C            5.15225858871981       -2.76079997027467        2.71667316094812
C            4.33499867911793       -1.67908698877084        2.95126752428787
C            4.66540195180042       -0.72464932149066       -0.93760651868497
C            5.70715717658848       -1.52990643851668       -0.48367744073968
C            6.17016106055956       -2.58902821594345       -1.22605332709508
C            7.17539291131562       -3.54091088120392       -0.60754669563674
F            7.61132520406426       -3.01590074251664        0.55432660366510
F            6.55158576525660       -4.71087872001152       -0.37293967142101
F            8.20004801452977       -3.71585137036367       -1.46242591536334
C            5.62405959602297       -2.84562442937859       -2.46674208427162
C            4.60397391213570       -2.04960472350418       -2.94968060124173
C            3.94258082177116       -2.37041405317034       -4.27388821809705
F            4.79909963749910       -3.07893759506111       -5.03506533957277
F            2.83226404774835       -3.09267334657093       -4.02676285988552
F            3.61709434811612       -1.21465091495880       -4.88510313062216
C            4.12124420746993       -1.01012364743806       -2.18819630408955
H            5.71855165166337        0.48906692671387        1.21457718649661
H            5.37339067991316        3.04151886381086        2.15278941677877
H            6.31109145956672        6.50409072497266        3.87074304761731
H            6.97341662352932        7.99654406695041        2.03513974796344
H            5.76095476138648        7.92907539389493       -0.10024385520999
H            3.87946970620664        6.37626113227277       -0.39522865718479
H            3.20703473076395        4.90071514447612        1.44991213638386
H            3.93496002964907        7.17206663381454        4.84889331103029
H            4.01919639655249        7.83337560658075        7.21430137591346
H            4.57888869870500        6.17976428295076        8.93038182315827
H            5.07550425649723        3.85707902621739        8.28839447306248
H            4.97844850059969        3.19320724225813        5.92172503386452
H            2.28711787809247        4.74317759752137        5.14873041025966
H           -1.80238636288525        3.60182488802829        6.68668015078738
H           -1.29525734265586        7.03692314743696        9.12612647774553
H            1.96190661167533        5.62482661844282        6.83689544702950
H            1.21884608653248        1.29348319423197        4.06980792835644
H            1.03311892784930       -1.92021672981096        4.24820867980796
H           -1.39845335616500       -2.13191420058448        4.57000462563879
H           -2.93980489801067       -0.91887316742144        3.09230585897117
H           -2.05636634210241        0.47703759597137        1.27245425517353
H            0.37293765920931        0.65063499525478        0.93253139695534
H            1.83732220130074       -2.42102917399484        0.82197862296308
H            3.30230698008686       -4.35379742670008        0.39994333302045
H            5.44662638750952       -4.54476641821075        1.58169492419707
H            6.09528818709250       -2.84806456449803        3.23101389418307
H            4.62082270164850       -0.92220320925649        3.65988830583281
H            6.12021596376577       -1.38616917034691        0.49762226800561
H            5.97726268717773       -3.68030852211839       -3.05023147795843
H            3.29269568378498       -0.43216218143729       -2.56098087636831
