92
 energy: -19.682339388380 gnorm: 0.000877330006 xtb: 6.5.0 (97a52f5)
N            1.72058205572009        0.40421613653638        0.92581445028463
C            2.82378587788764        0.24519835212253        0.59484361310872
C            4.15481261039954        0.07744711379562        0.20914543107150
C            4.72072726206898       -1.16140304628916        0.28181810425903
C            3.98408876268027       -2.39461727645109        0.54082375409064
C            4.40987133805149       -3.24987812640925        1.55498125715543
C            3.70175347727168       -4.38156362839118        1.92214090191000
N            4.18012039228222       -5.17914187346463        3.01802792364094
C            4.63061145122157       -4.51403133155215        4.20602346801510
C            5.71972980381964       -4.99192898939796        4.92921658416838
C            6.15829790543387       -4.33240095402065        6.05409592425905
C            5.51983944501995       -3.18394727057910        6.47686307113490
C            4.43970854325388       -2.69602085302224        5.76951648455548
C            3.99881100800082       -3.35346026252709        4.64467156870134
C            4.28976316595486       -6.60520909479607        2.91038879041854
C            4.05578009137465       -7.42146843554666        4.01413060654498
C            4.09210895193803       -8.79134858744498        3.89429467013056
C            4.36081739736176       -9.37184025570543        2.67130800205304
C            4.59513690663866       -8.57646920138269        1.56772552515103
C            4.56076482378396       -7.20622723406643        1.68454761451918
C            2.49197601696988       -4.69160107120048        1.24350096899639
C            1.71999409180627       -5.82392980647361        1.67683403301202
C            0.57021059204952       -6.33349179446617        1.15890701938426
C           -0.08546811312620       -5.73063028534265        0.08761177329872
N           -0.62579098566284       -5.21471448508723       -0.80295375708860
C           -0.02717253958394       -7.55042695749087        1.72258010136764
C           -1.35344539908246       -7.87751467881873        1.43691953988397
C           -1.93005329167208       -9.01308540675674        1.95427398809406
C           -1.19794556582051       -9.85665372466483        2.76426145264535
C           -1.81324655589848      -11.12144652904511        3.33724381904413
F           -3.12843919063439      -11.15282601989690        3.03717796056477
F           -1.18389463390621      -12.18422445313208        2.79383833557171
F           -1.63892793504270      -11.11315505874061        4.67542572088690
C            0.11878727830608       -9.55947181683419        3.04402577147124
C            0.70045116114490       -8.42513568615025        2.53115160461781
C            2.09958620495982       -3.86487527429527        0.19428134578817
C            2.81715435069546       -2.74857312286329       -0.19219522244580
N            2.37417980771233       -2.02556299900812       -1.34529207269171
C            0.96880396355719       -2.04566940844077       -1.67275545075008
C            0.51610449191797       -2.71350643554189       -2.80676164787196
C           -0.83124768375014       -2.81364613539269       -3.06476656098794
C           -1.74624621430756       -2.24568278838208       -2.20082981811658
C           -1.30990478623317       -1.56635023658109       -1.08132327584140
C            0.03514614606864       -1.46323493152324       -0.82112132781829
C            3.28294313744164       -1.43438809324201       -2.28602941387699
C            2.96852453033406       -0.21951698542962       -2.88859196631446
C            3.85026560978828        0.38173515550102       -3.75629291769111
C            5.05463591547676       -0.22594209147385       -4.04859644682084
C            5.37236023466610       -1.44009802149626       -3.47312197190051
C            4.49483384873443       -2.04178575201685       -2.60080689024153
C            4.88127725097664        1.25093356825663       -0.28354786312687
C            6.13976286118073        1.15020480348719       -0.87919574029125
C            6.75938889821807        2.25851836490482       -1.40595976715593
C            6.14672643944862        3.49287967796488       -1.35277454760995
C            6.81718883177232        4.69366307035070       -1.99621507764548
F            8.14347643052403        4.63107069026239       -1.75530919282270
F            6.58208710541830        4.64448463170284       -3.32402176244688
F            6.29884222506664        5.82329578270828       -1.47103106775932
C            4.90379899901348        3.61341032758333       -0.76646470067185
C            4.27869655177167        2.50901326139087       -0.23914848688810
H            5.78616326723599       -1.24917613456984        0.15176760887130
H            5.30150168382458       -3.00279994884937        2.10058377123783
H            6.22498775465904       -5.87726497542402        4.58589987985076
H            7.00396659042169       -4.71080262207889        6.60409490791959
H            5.86553475961083       -2.66756496367882        7.35707599089464
H            3.94179278828609       -1.79867824851827        6.09795475603712
H            3.15542297754950       -2.97999863973460        4.09085404462018
H            3.82401431179389       -6.96418285203575        4.95988192100979
H            3.90533583351817       -9.41224681391452        4.75490345462327
H            4.38472835130187      -10.44500711930400        2.57750967408596
H            4.80090883034063       -9.02995231844716        0.61230308298418
H            4.73389510844908       -6.58073854093393        0.82673484838598
H            2.11314959604446       -6.32237746912063        2.53995189062647
H           -1.92424616712721       -7.22574379917130        0.79923541431260
H           -2.95455590889150       -9.26390971144136        1.73690350167415
H            0.67949293008978      -10.23643855862189        3.66686524485641
H            1.73901391156064       -8.23613331510767        2.72978155780311
H            1.20878044212761       -4.08531417020138       -0.35998839266606
H            1.23614488649493       -3.17556643951179       -3.45884471424621
H           -1.17400643653012       -3.35360854034501       -3.93188949960701
H           -2.80162405256080       -2.33805154965194       -2.39752529933416
H           -2.02358682240065       -1.11676254293951       -0.41080416550994
H            0.38875740499493       -0.90344348945244        0.02588341980477
H            2.03650204478552        0.25582465699194       -2.63827909174363
H            3.60526349588078        1.33211171799865       -4.20110895252623
H            5.74667138289338        0.24866964819774       -4.72458035023836
H            6.31084583466771       -1.91557043934443       -3.70537469669492
H            4.73563157452956       -2.98663716820091       -2.14665094233139
H            6.62073455614978        0.19247013674847       -0.96057657585298
H            7.72586322640290        2.18224955690144       -1.87549430714764
H            4.43510657802574        4.58297024564490       -0.73923448654575
H            3.30120791539125        2.60299994233777        0.20152227191490
