86
 energy: -18.819296249521 gnorm: 0.000779540251 xtb: 6.5.0 (97a52f5)
N            1.65143454549255       -0.73803070291685       -0.58999571570256
C            2.75631066892936       -0.47863754964040       -0.33608159718763
C            4.09218779341470       -0.20036873290022       -0.03943757930216
C            4.67980599998917        0.91772245941415       -0.55519308550296
C            3.97130441662607        1.98371945515722       -1.25603644128402
C            4.42691745935502        2.40952034732271       -2.50231466093608
C            3.74421922732135        3.33964142098566       -3.26795406193657
N            4.25888203124220        3.69089559230668       -4.56314857406677
C            4.72991303684993        2.64547806879889       -5.42481045119081
C            5.83572762548512        2.83645955609684       -6.24882283833488
C            6.28944210754205        1.82176411228349       -7.06017013710762
C            5.64997190107164        0.59794413133253       -7.06205882231805
C            4.55420853748873        0.39170112374301       -6.24771864879584
C            4.09802109445525        1.40479859180490       -5.43618564921708
C            4.38365524714801        5.06171000441493       -4.96709344607775
C            4.18758267633678        5.43234916685537       -6.29519607588089
C            4.24241023965834        6.75489231509413       -6.67077418064087
C            4.49149662789388        7.73197478270849       -5.72769090639775
C            4.68726600019664        7.38071846505126       -4.40672169217574
C            4.63472752981035        6.05873133134627       -4.02857730498029
C            2.52841651479892        3.88611932372023       -2.77409018896671
C            1.77762371918867        4.78450704248169       -3.60843481291162
C            0.63131720268064        5.46408153727228       -3.33295810224295
C           -0.03682103618027        5.32244022871782       -2.11791877205490
N           -0.59530980955161        5.19528273607834       -1.10600484648036
C            0.04569671177312        6.37668440632345       -4.32355129254234
C           -1.28410971740497        6.78330784050209       -4.20027710605544
C           -1.85461168647827        7.63546127393639       -5.11537535037025
C           -1.11440870649669        8.11802707197182       -6.17986811485869
F           -1.67630606587312        8.96179559010020       -7.08164649576898
C            0.20907488474107        7.73648473835157       -6.30771151404803
C            0.78341923005151        6.88295950377962       -5.39606768415988
C            2.10962700629361        3.50459257727457       -1.50208028767942
C            2.80469620592426        2.59876284886656       -0.72270202863855
N            2.35243997749465        2.36664176216503        0.61483667574033
C            0.94944887938618        2.53058908091568        0.90842229071983
C            0.51265175071286        3.57670591540258        1.71600572123639
C           -0.83196565587595        3.78555914326613        1.91961031654399
C           -1.76019226558709        2.95256822065170        1.32628970163269
C           -1.33955014163388        1.90199780005930        0.53509965917727
C            0.00291144363746        1.68997283832278        0.33067612702675
C            3.26187789396434        2.18765127063833        1.71056783857603
C            2.94303475754669        1.31091721286570        2.74351884148069
C            3.82459783967247        1.09656043845262        3.77767838583646
C            5.03377846404196        1.76273963314629        3.80482601533499
C            5.35658511255807        2.64834009439537        2.79552202586661
C            4.47843626624716        2.86213494416546        1.75793167480357
C            4.81960146191349       -1.15376911540983        0.80400688419182
C            6.06845327975399       -0.85889572489019        1.35449125624253
C            6.70846157766696       -1.75903782471614        2.17339986537536
C            6.12594573165868       -2.97693884948408        2.47500955710822
F            6.75493861846669       -3.85425946398296        3.29695657016428
C            4.88687833646262       -3.28101364635634        1.94075545072135
C            4.24249820078811       -2.38388936506656        1.12335777319543
H            5.74911407268605        1.01726496928322       -0.47201635798911
H            5.32302295221308        1.97322746234154       -2.90323201554913
H            6.34029323035884        3.78638424416068       -6.23127878091691
H            7.14664890866570        1.98170875743428       -7.69320307310615
H            6.00660725304326       -0.19601746093688       -7.69730975083219
H            4.05601555887915       -0.56376110593608       -6.24678622524100
H            3.24305436360402        1.25160039471058       -4.80113491305503
H            3.97097304340648        4.66909446405081       -7.02183357495361
H            4.08546000116972        7.02880533490889       -7.70105724892576
H            4.53066255306119        8.76781143226118       -6.02196440736757
H            4.87780315419230        8.14363097730285       -3.67004664030272
H            4.77794054611162        5.77896484421757       -2.99972565401557
H            2.18360713360764        4.91872412653409       -4.59126757859014
H           -1.86393795048031        6.41877525448096       -3.36999767834438
H           -2.88078008607824        7.94327320793621       -5.01981728596334
H            0.77858525748373        8.12926310391519       -7.13141816964722
H            1.82452366419204        6.63543631288198       -5.49513466914114
H            1.21874339504398        3.92625134172824       -1.07990870027491
H            1.24319644723664        4.23549341738715        2.15162859542981
H           -1.16176506861416        4.61172021243112        2.52771829336780
H           -2.81307338048569        3.12583268141938        1.47665563047278
H           -2.06303722945097        1.24757258552702        0.07731183042377
H            0.34456241618984        0.85274092178540       -0.25102801540070
H            2.00715427997032        0.78191809992363        2.70189080715270
H            3.57425256523906        0.40249083189899        4.56292377574753
H            5.72515572474642        1.59098922661964        4.61321613710319
H            6.29890255594555        3.17033020538696        2.81888840057345
H            4.72328741244137        3.54774352741322        0.96599200933065
H            6.52535419385050        0.09482332228458        1.16140209011993
H            7.66880777265999       -1.53092099062685        2.60063819290603
H            4.43953260025261       -4.22837118873753        2.18421552506972
H            3.27222191022449       -2.62163553716378        0.72316528674717
