44
 energy: -9.762451305311 gnorm: 0.000978246614 xtb: 6.5.0 (97a52f5)
N            1.65685732941183        0.61446372820368        1.88953449414219
C            2.60045995169142        0.45811448249679        1.22916594741783
C            3.72778424054426        0.21532201723802        0.44006770597775
C            4.12528363694396       -1.03600490313667        0.08210241620183
C            3.51638249818166       -2.30691647329793        0.40687536371363
C            2.35724628080915       -2.43793096123967        1.17830539129115
C            1.82505982672054       -3.67186365013636        1.45671595431915
C            2.42633534427201       -4.83013583050505        0.97790235692587
C            1.88533780736482       -6.09034301517065        1.26271517878335
N            1.44013352461694       -7.13769481247241        1.49814939023254
C            3.57880738838360       -4.71253016565925        0.20965689753488
C            4.11227973470527       -3.47848100115029       -0.07041305724185
C            4.48804343279616        1.35700763134949        0.00027490086514
N            4.17512859436361        2.59483960364471        0.28465588946517
C            5.05353975167183        3.50408867917427       -0.24368005986327
C            4.78925812960693        4.94484128028129       -0.07683940899322
C            4.18564863848953        5.39732308737964        1.09598860960839
C            3.90931178185499        6.73124119293317        1.27499713793412
C            4.22241374044566        7.64152993974492        0.27769844202927
Cl           3.90482071340154        9.31905857761785        0.51258945382727
C            4.79798284367123        7.20451032565754       -0.90482307430029
C            5.07259901120379        5.87039603308280       -1.08311328867338
C            6.12907710260833        2.95485997819732       -0.92870269348686
C            7.27558327433252        3.64013595815721       -1.51875620303467
C            7.85571377220097        3.16052519762816       -2.69348529285257
C            8.94411965179403        3.79026071199014       -3.25240569885620
C            9.48440406035293        4.90590726201261       -2.64587919976790
C            8.93639798881401        5.38719932244163       -1.47439104723826
C            7.84802164468317        4.76042881820019       -0.91283041750728
S            5.93455287375045        1.23845241509959       -0.97555730222383
H            5.00976550587867       -1.09277664755218       -0.52693378111637
H            1.86875997038076       -1.56296967350579        1.56462452323611
H            0.93242971352762       -3.75855735169658        2.05311034189104
H            4.04841787305824       -5.60719540831868       -0.16293442088020
H            5.00491847370799       -3.40520163704147       -0.66759448821288
H            3.93215001733136        4.67839980680138        1.85610026668160
H            3.44694088529278        7.08571014817605        2.18044251766914
H            5.02111659077516        7.92413275216987       -1.67409560235778
H            5.50177369245922        5.52502198627220       -2.00721743409444
H            7.43311966149798        2.28866937151164       -3.16157028923668
H            9.37578147408166        3.41064538245033       -4.16372774484956
H           10.33714707615530        5.39726420071200       -3.08471088259833
H            9.36237727929482        6.25395003536564       -0.99672163416838
H            7.43061721688662        5.12459160490615        0.00966984181409
