36
 energy: -7.472052024022 gnorm: 0.000647649843 xtb: 6.5.0 (97a52f5)
N            1.56840630591652       -0.01799408488000        1.67066386301284
C            2.61237299746801       -0.01440335799605        1.16056075272033
C            3.85877511184274       -0.05677327130753        0.53117317954845
C            4.29617140283332       -1.13181106925171       -0.17365177458876
C            3.61527088752749       -2.38681082850434       -0.42146849723832
C            4.26747668065938       -3.36556154710516       -1.17476777134437
C            3.66381638438783       -4.57032075227149       -1.44516281691202
C            2.39398118542129       -4.83491784542629       -0.97560127201554
C            1.72261439218601       -6.16469301988525       -1.26526690354071
F            2.47983723264158       -6.86477234498139       -2.13367457168058
F            1.59743693799383       -6.84167605650677       -0.10639030872761
F            0.50672702796637       -5.92550927288206       -1.79609451494494
C            1.73354180320873       -3.88367050041340       -0.22684557884801
C            2.33165912348530       -2.67797865517550        0.04743832744528
C            4.69330127289392        1.11399825965995        0.65142091331540
N            4.34132624654356        2.19018897014404        1.29940418006860
C            5.30632443712920        3.17040908892484        1.26666743814903
C            5.07543143558561        4.45435036118085        1.95030806906393
C            5.97215795932485        5.51926149494032        1.87084401078650
C            5.71325858393568        6.70049502484465        2.52494983820768
C            4.55482678204333        6.84211685298975        3.27045232495920
Cl           4.23624495010673        8.32200316965679        4.09242284509180
C            3.65347935005185        5.79477746009764        3.35665423194639
C            3.91363293504965        4.61528296512412        2.70152421487812
C            6.43520611134154        2.83832040224018        0.57718207344480
S            6.29222572522959        1.25624706098661       -0.05585225928584
H            5.27491941368931       -1.04465855870632       -0.61083912558541
H            5.25794076646018       -3.16821265324381       -1.54764970635967
H            4.16684639294353       -5.32490644791903       -2.02705066700749
H            0.74251521703396       -4.10605907648137        0.13404659628344
H            1.79442635284849       -1.95492790598939        0.63256740948284
H            6.87063391671503        5.41632594457313        1.28917772892941
H            6.40107778290393        7.52720109032664        2.46715871207678
H            2.75590932279476        5.92008070676316        3.93843572538173
H            3.22032767127305        3.79349348877008        2.75726141950979
H            7.29771990056215        3.45952490770547        0.44343191377290
