53
 energy: -11.443432413388 gnorm: 0.000700325879 xtb: 6.5.0 (97a52f5)
N            1.43646673188108        0.56928969059744       -0.77213768824707
C            2.53489643674076        0.37354198203410       -0.44563110017160
C            3.84837294863786        0.12869089072110       -0.04198630222901
C            4.28372310637304       -1.12713490033400        0.24005824874017
C            3.54886715756729       -2.37495932934063        0.16569518149462
C            4.21169090080025       -3.56748286904409        0.47699775252540
C            3.56976697410596       -4.77837852608438        0.41678638388798
C            2.22771497090550       -4.86819365466349        0.03308121217631
C            1.57985434930582       -6.16511083412855       -0.00628145827801
C            0.44253532108805       -6.50862439115921       -0.67530658465618
C           -0.22176054342952       -5.58357576004248       -1.62502832649091
C           -1.53732886910020       -5.17286451523729       -1.41435141605857
C           -2.14901485418009       -4.30255393574216       -2.28785454575300
C           -1.46488576711064       -3.83203147998659       -3.39020292819966
C           -0.16615914975680       -4.23744301804229       -3.62123608285966
C            0.45035356817313       -5.10710672497815       -2.75054384489752
C           -0.13051348549419       -7.85988738812446       -0.50997967432449
C           -0.83865778085556       -8.45680796426942       -1.55251571510801
C           -1.38313725703715       -9.71316870415002       -1.41101662924035
C           -1.23678449769247      -10.40049222017181       -0.22390431894382
C           -0.54626594532074       -9.82518161448995        0.82277429688154
C            0.00040992250006       -8.56887688816325        0.68436820612660
C            1.55912141056599       -3.67494646999710       -0.25575381442062
C            2.20112901285994       -2.46668387363306       -0.19681182737208
C            4.72663770445789        1.30365888144987        0.08462987314052
C            6.11445110765130        1.19597358805281        0.20778914829770
C            6.90094844013808        2.31757175185031        0.32512592969482
C            6.33181348343642        3.57576173438578        0.32052692336738
N            7.17530769038941        4.76302471020870        0.44307225442453
O            8.39973136433657        4.60803812685818        0.54637872464043
O            6.63191071079187        5.87576465834460        0.43889904964155
C            4.96317074770446        3.70409976527717        0.19007629968071
C            4.17317552021522        2.58649962680836        0.07062082944813
H            5.29851204465716       -1.22776217686630        0.57746164865720
H            5.24735520830937       -3.52622233757253        0.76748579759205
H            4.10289751250144       -5.68163080625491        0.65886499838755
H            2.07101574215712       -6.94301327437993        0.55116677938857
H           -2.06539983473367       -5.54000520814956       -0.55138430745595
H           -3.16339573284301       -3.98591066151543       -2.10940576738567
H           -1.94427175336026       -3.14722863601695       -4.07021975458982
H            0.36711960912446       -3.86925977402715       -4.48209306066672
H            1.46443304955922       -5.42312205107798       -2.92396130991086
H           -0.95141227572913       -7.92163380108900       -2.47923698074589
H           -1.92426789271214      -10.16069695469350       -2.22830349543320
H           -1.66358508976436      -11.38379238617848       -0.11343300819431
H           -0.43797401934324      -10.35924688038313        1.75242434700256
H            0.51518823924026       -8.11636597109115        1.51359392558558
H            0.51701499980521       -3.70547594784808       -0.51549318821394
H            1.64821866903017       -1.57788135114599       -0.43330420734609
H            6.58280035301608        0.22869304232139        0.18775569459778
H            7.97107018001968        2.23732119044483        0.41725744722453
H            4.53480911950252        4.69232031746947        0.18187337294390
H            3.10738044093312        2.69148332324292       -0.03725698835156
