43
 energy: -9.264037895143 gnorm: 0.000672619460 xtb: 6.5.0 (97a52f5)
N            1.62144284757234        1.91002436010662        0.67523994230191
C            2.58924794946951        1.31765201589007        0.42337115184654
C            3.74438545314623        0.57497525852197        0.16263603263372
C            4.13914611354935       -0.47905877105602        0.92887675531229
C            3.50055549144046       -1.03372585179587        2.09960094173002
C            2.29917219819603       -0.54533818543177        2.63312493657406
C            1.73638277065365       -1.11151288760366        3.74819557056773
C            2.35555765665197       -2.18519131464972        4.37100545290334
Cl           1.64858478776826       -2.89563058670212        5.77133624919129
C            3.54558928114107       -2.68513742121214        3.86261346329174
C            4.10846280165087       -2.11970248842004        2.74584974847675
C            4.53972543738664        0.97040204542375       -0.97209760000182
N            4.23803301158344        1.97200881301030       -1.75753753143362
C            5.14854038604624        2.15498502383466       -2.76445891007971
C            4.90523729769469        3.20192256656031       -3.77646804960642
C            5.18368303571377        3.00163844988175       -5.12653105687126
C            4.91697563430031        3.98590070935059       -6.05123775109266
C            4.35682181122904        5.18120521256907       -5.64808928840343
C            4.05625706505321        5.38738654774720       -4.31695609086878
C            4.32267238143862        4.40487878862093       -3.39026589955268
C            6.23650333623826        1.29329162779604       -2.74033249537387
C            7.41214026366176        1.29182854703335       -3.60627923041540
C            8.04502139451088        0.09156066370715       -3.93153008935292
C            9.16150540396035        0.07626288727221       -4.73624433523687
C            9.67773430288461        1.25887396221766       -5.22619962192361
C            9.07760007601826        2.45890415263359       -4.90227345328792
C            7.96099283853379        2.47785572874571       -4.09827461930937
S            6.01624356061085        0.16249341738848       -1.45141130963381
H            5.05024898237675       -0.96552296112800        0.62829171758997
H            1.80519782058633        0.28682692105416        2.16811642653182
H            0.81318629929514       -0.73359222568910        4.15454515606254
H            4.01513422617763       -3.51809559064473        4.35831233107894
H            5.03276569407337       -2.51072055138215        2.35574394851892
H            5.60317308293255        2.06169485506723       -5.44044538242729
H            5.14085871984711        3.82062628532398       -7.09224101772647
H            4.14559136328470        5.94946277601515       -6.37348604638755
H            3.60667813171361        6.31508912730667       -4.00316363206578
H            4.07379742935624        4.54777452050537       -2.35266925956359
H            7.64212667680188       -0.82779583113764       -3.54380211747072
H            9.63363945361429       -0.86024268312005       -4.98377048219053
H           10.55124629589427        1.24564452709663       -5.85711838119798
H            9.48563429618625        3.38290375052043       -5.27760301930393
H            7.50328693975536        3.41459380876635       -3.83228315382575
