33
 energy: -7.081099709044 gnorm: 0.000703829154 xtb: 6.5.0 (97a52f5)
N            1.50355975907935       -0.03288207626321        1.79390315102080
C            2.54280122306884       -0.06000429038381        1.27405063064590
C            3.78249874976422       -0.14031341150013        0.63426642856607
C            4.21785345567342       -1.25806991273971       -0.00659502716499
C            3.54313616698500       -2.52534828568481       -0.17271072749606
C            2.25872214873323       -2.79093119517567        0.32124025723480
C            1.66189696290970       -4.01016719666699        0.12508723927970
C            2.32884268074918       -5.00674404878957       -0.57052301859644
Cl           1.58141818842974       -6.53926311672897       -0.81394693367633
C            3.60087414736573       -4.76794121027795       -1.06761522668147
C            4.19835826930889       -3.54785115178042       -0.87204431246448
C            4.61925741295807        1.03534005760242        0.66606892569981
N            4.27335361513967        2.15579697279832        1.24008954036857
C            5.24192513987175        3.12741556740964        1.12786541373323
C            5.02410384073691        4.46108035929254        1.71640000610910
C            5.92489592962280        5.50942307464538        1.55204530151160
C            5.67575968965855        6.74133680205601        2.11586915897138
C            4.52698990119621        6.94842892494463        2.85177504676449
C            3.62365473536537        5.91987719539667        3.02226824667095
C            3.87075032277716        4.68850077798027        2.45834685044797
C            6.36312410387864        2.74219355345690        0.45252964626638
S            6.21278241049364        1.11873597889381       -0.06494376184400
H            5.19260611439541       -1.19417565860504       -0.45642545696896
H            1.72474042499539       -2.03293395726492        0.86251702581989
H            0.67454747292989       -4.21026813423758        0.50569886204292
H            4.10673061375737       -5.55243408951937       -1.60434720625417
H            5.18621954752392       -3.36708727333541       -1.25935937390303
H            6.81915702521657        5.35624835450180        0.97485602948920
H            6.37934807100162        7.54621422920694        1.98054469658230
H            4.33537990414343        7.91285441104273        3.29251096339512
H            2.72469800898812        6.07943386920335        3.59456829432218
H            3.17163413723288        3.87921991178362        2.58136681874759
H            7.22586982604639        3.34857496876270        0.26405251137162
