166
 energy: -37.269190849665 gnorm: 0.000724980391 xtb: 6.5.0 (97a52f5)
N            0.68765562511531        0.71332951409119        0.31856422338049
C            1.82390168432456        0.46838703897269        0.28220742671464
C            3.18882304214873        0.17630265997940        0.22781655011402
C            3.68452548397540       -0.80412887563440       -0.58017170679632
C            2.96751989954720       -1.62890126998342       -1.52808962125935
C            3.61388000757138       -2.74162429844532       -2.08485172992523
C            2.98541687952911       -3.54358932915942       -3.00223229116789
C            1.68808230468482       -3.25920480763707       -3.42917894232175
N            1.03229951972531       -4.08985227389241       -4.39272762623473
C            1.13770212814495       -5.51749602893114       -4.29918127758037
C            1.16994258942879       -6.31200845855579       -5.44290707292683
C            1.23736348687478       -7.68056462694461       -5.34403722834053
C            1.27458895971310       -8.29928235830177       -4.09903376194919
N            1.31801501832111       -9.73201467291901       -3.99305271989907
C            2.21423766457179      -10.48088977435084       -3.20416620330775
C            3.27565535286308      -10.07798344809408       -2.39429215332948
C            4.00089859431847      -11.03656871746171       -1.73078240555511
C            3.69059779759743      -12.39352839258021       -1.86061397588980
C            2.65265746949221      -12.80835321241828       -2.65926984240609
C            1.90646994577245      -11.84543422374280       -3.34100100687254
C            0.78165134262063      -11.94350415273150       -4.23962264821607
C            0.05345574877662      -13.03331528010025       -4.72019177651690
C           -1.00162293184240      -12.79834071761529       -5.56806451915331
C           -1.34668329904201      -11.49670687839573       -5.94367268279310
C           -0.63924903627618      -10.41518939595653       -5.48011095185801
C            0.43925536414253      -10.63566990695626       -4.62388956121647
C            1.25178871746794       -7.50836647050045       -2.95566643557057
C            1.18609572419768       -6.14021707831311       -3.05404856831549
C            0.23769116331209       -3.49216493819221       -5.42732211927414
C           -0.94020968407902       -4.09235485404658       -5.86634239923598
C           -1.68632671468239       -3.52199496790297       -6.86891706517801
C           -1.27949969776689       -2.33350638232261       -7.46572867452547
N           -2.05022408539761       -1.74435193310507       -8.52625116625691
C           -2.46559366586461       -0.39962947952926       -8.60275602493654
C           -2.29409065118962        0.66215452382798       -7.71497511121980
C           -2.81703722051852        1.88849444369011       -8.04318614885653
C           -3.51268087970881        2.07848595132057       -9.24088007896827
C           -3.69738926554969        1.04190840179343      -10.12326767724411
C           -3.17239930840367       -0.21136036671307       -9.80299370325884
C           -3.19389581556684       -1.47934241406505      -10.49134314089316
C           -3.73995991612247       -1.87722119841476      -11.71297480411865
C           -3.57833973880976       -3.18153134455096      -12.11283034986478
C           -2.87966369197550       -4.09608776299395      -11.31914206979575
C           -2.33834620391515       -3.71989507015362      -10.11473426829919
C           -2.49970746953599       -2.40156593931655       -9.68935576446819
C           -0.10751730188376       -1.72872088705303       -7.02504277432420
C            0.63759590033392       -2.29727352038735       -6.02126231861848
C            1.04005500109970       -2.14922368915350       -2.88765018942099
C            1.65777822680238       -1.36317228623692       -1.95116523055937
C            4.06983249958948        0.94804023216103        1.11433901437686
C            5.42708749171652        1.13796468635006        0.83284368881928
C            6.21987254100381        1.89036606352349        1.66153075604983
C            5.70943782805282        2.47178704102854        2.82698344370559
C            6.57840919045067        3.27933496658327        3.69334561527494
C            7.71458071325859        3.84156392011338        3.10655272904956
N            8.65770856240729        4.31939682575140        2.62186559017338
C            6.29838788908141        3.43747477287549        5.01861022428405
C            7.01509024275003        4.22564948438079        5.99724704721817
C            6.70942216342786        4.06063294096435        7.35556988997798
C            7.33783332372815        4.80366632381641        8.32107537133212
C            8.28425771075169        5.76865520086603        7.97576038881402
N            8.92349967120634        6.56145364342251        8.98170448624248
C            9.36831755496937        5.94850518654561       10.20031044962763
C            9.30112225079122        6.62952176643776       11.41366032011532
C            9.75713099251913        6.04648997925207       12.57091732123761
C           10.29456933691941        4.76391675832498       12.55324512674207
N           10.79473188885247        4.16192500601973       13.75878129288622
C           10.48173381449999        2.87352680711064       14.23675019060370
C            9.62105229355066        1.89697463610221       13.73637870197412
C            9.49926984643277        0.71170983020610       14.41862664680121
C           10.21815989237868        0.47984575651987       15.59505616558324
C           11.06512401239258        1.43339500440546       16.10559035736571
C           11.19873046218716        2.64419405064220       15.42373234347028
C           11.98264394729319        3.82683959889528       15.68651010840401
C           12.87954436579698        4.15388016968902       16.70509462930521
C           13.49700743140757        5.38057973155573       16.67016498461011
C           13.23980133467822        6.28639706721134       15.63678830686530
C           12.35977093224046        5.97925042890656       14.62865258396981
C           11.71818163537610        4.74121021124813       14.65232174030859
C           10.35387431575005        4.07784941059131       11.34524145030035
C            9.89669959322879        4.65968357409753       10.18832997162136
C            9.11775858438993        7.96689262525288        8.76904868334613
C           10.24770136240491        8.61829803936769        9.25834993247657
C           10.41132478429948        9.97020368318684        9.07754965411624
C            9.45151976984540       10.71497385409665        8.40069988557513
N            9.60909765630335       12.13368650823327        8.23215539006081
C            9.48506945941132       12.84587090641600        7.02232735459024
C            9.23431469523898       12.40443095920084        5.72347130252314
C            9.16988838647815       13.33086229586219        4.71219041272619
C            9.35313009838709       14.69281802542283        4.96923933600175
C            9.60729665838745       15.14428025238757        6.24158662188187
C            9.67731313409209       14.21413964336782        7.28021925890087
C            9.92594089547447       14.35276306885063        8.69489260173538
C           10.17032931635102       15.46480499581914        9.50270128722365
C           10.35725202181863       15.27187544396931       10.84997085782945
C           10.30192143910562       13.99124631390443       11.40807817068051
C           10.06342206406973       12.88798352007601       10.62637282039871
C            9.87871051866221       13.06470109731618        9.25542975596397
C            8.32745794087410       10.06593309010532        7.90209612326118
C            8.16390209930487        8.71429710338898        8.08190880238437
C            8.59194013080279        5.94344090694323        6.62649492585927
C            7.98435122744483        5.18173015496607        5.66329581882089
C            4.35113807483350        2.28589518905120        3.10574237581498
C            3.55297993945060        1.55423605638567        2.26414978972024
H            4.73381699022209       -1.02183163732645       -0.48936156746868
H            4.62017329139099       -2.96783039826316       -1.77633644295569
H            3.49158875730219       -4.39584460967268       -3.42075879661985
H            1.14697794578404       -5.83566155486916       -6.40729804310226
H            1.27176693365916       -8.29168300393434       -6.22886493762365
H            3.51497667767761       -9.03340041734844       -2.30733972860573
H            4.82301965377888      -10.73953061299458       -1.10067072302089
H            4.27605533054769      -13.12396757568612       -1.32697632120551
H            2.40852338959278      -13.85044391989919       -2.76620053865323
H            0.32197066429597      -14.03119922343661       -4.42158359242555
H           -1.57470904400682      -13.62823549827441       -5.94737597609150
H           -2.18227986955640      -11.34117846061623       -6.60606152111991
H           -0.90550051037404       -9.41079514085518       -5.75617189081973
H            1.26564730146110       -7.98737343428225       -1.99238561038011
H            1.15136071830834       -5.53156573800563       -2.16761023746911
H           -1.26268175433728       -5.00664080600746       -5.39994577987255
H           -2.60222309327178       -3.98103352658317       -7.19750415154367
H           -1.76637413069943        0.50644540838412       -6.79125692895870
H           -2.69138379629100        2.71795638399506       -7.36681785006306
H           -3.91175536967950        3.05217600690065       -9.47276851539217
H           -4.23414596563272        1.17923698852839      -11.04527191963449
H           -4.27179664971893       -1.16580785969772      -12.31968446800666
H           -3.99294848914572       -3.50471240289849      -13.05344868210455
H           -2.76333541426945       -5.11178762457563      -11.65986575398376
H           -1.79110058664890       -4.41526157753615       -9.50408975714312
H            0.21501737950197       -0.81640612288956       -7.49536053050373
H            1.54995492854403       -1.83325847327846       -5.68992302925617
H            0.03355209219109       -1.93475621331029       -3.20207128115484
H            1.11958260562574       -0.53422289039715       -1.53148417511140
H            5.84400814856283        0.72204802956500       -0.06732456875864
H            7.25652987378040        2.04776358032043        1.41873893344070
H            5.45566008492495        2.89133472899252        5.40375776461889
H            5.96985962184321        3.33108982892232        7.63806171637159
H            7.09415523974671        4.66770374193087        9.36022064758901
H            8.87974365066422        7.61926742095090       11.43155140298918
H            9.69556308388217        6.57087322571947       13.50836468118670
H            9.06433927511539        2.08587940145592       12.83616183659704
H            8.83843226544634       -0.05211250105400       14.04297120892257
H           10.10394394318484       -0.46033176123390       16.10897692159796
H           11.62004915804031        1.26376796184513       17.01130948385502
H           13.07623093855285        3.44882093940401       17.49330105950281
H           14.19280767312505        5.64827787737009       17.44817656067629
H           13.74247270249930        7.23958747801418       15.63134393162328
H           12.16541692728794        6.66659089354875       13.82508835374959
H           10.78242111912856        3.09113302584272       11.32869429305202
H            9.95798942508381        4.13289849000997        9.25225863519914
H           10.99590291198145        8.04342327012570        9.77522803938745
H           11.28922407100908       10.46940124925441        9.44859228526716
H            9.10366743671166       11.35457036390221        5.53175447506531
H            8.97692008421819       13.00387821082370        3.70367976724988
H            9.29621034765986       15.39757533097531        4.15611210805777
H            9.75214962842452       16.19011738658978        6.44725982133138
H           10.20624490800975       16.44725182199663        9.06615903287270
H           10.54599181218320       16.11982178160246       11.48752432963550
H           10.44679343380085       13.86964127665863       12.46897459357536
H           10.00916979189956       11.90134661389779       11.05010050964618
H            7.57879019450281       10.64382184531072        7.38915018862208
H            7.28608907256085        8.21735201446641        7.70785193868377
H            9.33338825702170        6.67511983306967        6.35667490815329
H            8.26460295458794        5.32023313097834        4.63592608601137
H            3.91864856435211        2.75839955230996        3.96993748940625
H            2.50467336366295        1.44041223168258        2.47975780467864
