121
 energy: -26.060351559365 gnorm: 0.000311337757 xtb: 6.5.0 (97a52f5)
N            1.43576743819970       -0.26364630742056       -0.85875101752464
C            2.54938612166292       -0.14815389447086       -0.54354532365573
C            3.88532307326337        0.00072271060442       -0.16529094782452
C            4.36876240508772       -0.54898934865032        0.98176296381729
C            3.66840282598264       -1.34963434483926        1.96590460441045
C            4.38636329223377       -1.84805373773426        3.06090276637911
C            3.77784755565403       -2.61040306417212        4.02513965108828
C            2.41895025561902       -2.91271441148017        3.94741441294731
N            1.78280324647538       -3.70794590440669        4.95221102027111
C            2.23737787308950       -3.65301361670961        6.31078596380442
C            2.27777605660688       -4.80504148796835        7.09466422851859
C            2.72625957544819       -4.75817393985874        8.39082193302495
C            3.14448608586466       -3.55377583671275        8.96716298601996
C            3.61959639519601       -3.54142887363447       10.33770507561542
C            3.85543231351776       -2.43649168760748       11.06858181246703
C            4.34646954853694       -2.42541266411892       12.43370435669752
C            4.31003572035599       -1.23795876135459       13.17257072293390
C            4.76594383063433       -1.19458429751368       14.46613607889359
C            5.28880102526983       -2.33276184740667       15.07880337486218
N            5.76488198219815       -2.28646663355928       16.42694378379213
C            5.12836964450480       -1.43098892195351       17.38865784956289
C            5.87977483297487       -0.75378042503997       18.34554414554759
C            5.26781294414106        0.06054821450433       19.27159032040893
C            3.89500289545575        0.21276157847619       19.26006082590644
C            3.13570419327064       -0.45338464789939       18.31794371478499
C            3.74544338044205       -1.26789897406896       17.39064222985607
C            6.88439979096234       -3.09155920479548       16.82746288743948
C            6.91694474604081       -3.68878793750796       18.08490206837264
C            7.99594880729657       -4.45068757850231       18.47277643836654
C            9.06225653531613       -4.62943430027716       17.61317398206656
C            9.04515305102486       -4.04292726999146       16.36272382684482
C            7.96700738300132       -3.28106360391168       15.97240878668514
C            5.33651422158733       -3.51653387236400       14.34334196437079
C            4.87446029868564       -3.56450129466918       13.05159017311555
C            3.09645348412113       -2.39931864717296        8.17780906038498
C            2.65396939817033       -2.45011960410141        6.87935696303623
C            0.67758834932279       -4.55386855748379        4.60797178432773
C           -0.40974035930781       -4.68966289189136        5.46973611936994
C           -1.48112923223630       -5.47762502822635        5.13124917109192
C           -1.50931155727135       -6.17626002063368        3.91936214422795
C           -2.66493189541647       -6.98696629275893        3.58518472299059
C           -2.73183449980287       -7.86254133978792        2.56553084613222
C           -3.89969181166257       -8.64937069977743        2.21571704443203
C           -3.77385478361306       -9.71627652618169        1.31950371280330
C           -4.86103483880119      -10.47474798726882        0.96467576887977
C           -6.12639957054999      -10.19596163000562        1.47983251300290
N           -7.26059396292417      -10.98330898082939        1.10501365710483
C           -7.11200054300575      -12.38907264889411        0.85340544896300
C           -7.82538642866866      -13.00824438013387       -0.16959852859375
C           -7.68714526767419      -14.35755182869329       -0.40504451021289
C           -6.83528609280524      -15.11325381699742        0.37671885115352
C           -6.12135920434710      -14.51372215403424        1.39590621624426
C           -6.25760081542236      -13.16452234239831        1.63294917404395
C           -8.55251955174535      -10.37158208540208        0.96902293926753
C           -9.70439971844127      -11.04634444488744        1.36495686312212
C          -10.94368932427552      -10.46439931320226        1.22105835113365
C          -11.05580069175793       -9.19895786133146        0.67884888415404
C           -9.92247654839877       -8.51677911153336        0.28122348766053
C           -8.68208823859082       -9.09645107881940        0.42462263911779
C           -6.25877134447186       -9.12821706736730        2.36686573906922
C           -5.17146097570309       -8.37306933419949        2.72984598971273
C           -0.41173720484919       -6.04319059932939        3.06164664691053
C            0.65563497725265       -5.24889451652782        3.39951721759216
C            1.69654919448550       -2.41855929070780        2.86232777581800
C            2.30434493006941       -1.65929918892839        1.89687546268730
C            4.73426619584585        0.79995913339567       -1.06596313217676
C            6.12351443966651        0.87265119505009       -0.93108374049905
C            6.88020161266740        1.63390915827553       -1.79465161199346
C            6.27510242319822        2.33885464727338       -2.81548444538399
C            4.90578329568627        2.27639896768267       -2.97335995278513
C            4.14766494761980        1.51644536784185       -2.11230644321089
H            5.40185618791603       -0.36747833208167        1.21318389919501
H            5.43732359725434       -1.62766561039582        3.13878555285490
H            4.34834909931638       -2.99781528868104        4.85099962991373
H            1.96393397575827       -5.73777706577277        6.65969202268070
H            2.75695351092309       -5.65770937346786        8.98152151699966
H            3.76604917587077       -4.50161626083050       10.79772349358333
H            3.64436147102250       -1.47716681651714       10.63260019737140
H            3.91145698802031       -0.34964275524480       12.71318274140163
H            4.73788635652925       -0.27384635086232       15.02201117237220
H            6.94929916150418       -0.87142528874388       18.34430194370643
H            5.86086405880603        0.58048076188963       20.00612729278160
H            3.41673387413692        0.84999803472262       19.98581297722026
H            2.06425822099353       -0.33704287491943       18.30993535192550
H            3.15893876150261       -1.79865548209616       16.66119035193304
H            6.08010110542694       -3.55058500732455       18.74695967142294
H            8.00850263754963       -4.90838199800164       19.44846032939669
H            9.90714071646734       -5.22498447168723       17.91818421659548
H            9.87805469671661       -4.17979576351528       15.69254225835395
H            7.95262641629363       -2.81147680868259       15.00439282794604
H            5.73370422776265       -4.40013820578825       14.81142955453325
H            4.93508035777241       -4.48719141477930       12.50267672856546
H            3.42508842552014       -1.46076859021686        8.58690584768092
H            2.61376983965367       -1.55544752101345        6.28290656367363
H           -0.40263522300277       -4.14976898137512        6.40039306303907
H           -2.31715310603194       -5.56555697507261        5.80381971717404
H           -3.52032274466579       -6.88173172831953        4.22739323453424
H           -1.85424177128085       -8.02185844993572        1.96593617627056
H           -2.80426262651353       -9.94168354396116        0.90956200882142
H           -4.75286796991452      -11.28875996324174        0.26951450513354
H           -8.48155858909604      -12.41218341788696       -0.77940934082380
H           -8.24389010245734      -14.82463620210849       -1.20093914228375
H           -6.72820810755889      -16.16964755574727        0.19207870117035
H           -5.45822541419757      -15.10318965922097        2.00776999211777
H           -5.71290930826607      -12.69317959145482        2.43228193111481
H           -9.60924609735284      -12.02921756071088        1.79232225271831
H          -11.82760111793147      -10.99703459783153        1.53188920846753
H          -12.02654280752058       -8.74480913689997        0.56508106881185
H          -10.00945546909949       -7.53042790109346       -0.14439980268277
H           -7.79631648664161       -8.57554491448880        0.10547392031668
H           -7.23137590149077       -8.91068241508705        2.77227441872033
H           -5.30369341732391       -7.54579246487769        3.40404578242765
H           -0.41112948288646       -6.55376506214250        2.11527905755565
H            1.49626298684546       -5.15566257251936        2.73432553091455
H            0.64397929702969       -2.63310205827510        2.80001646123800
H            1.71426031932063       -1.29795349956265        1.07646441350961
H            6.61860920984099        0.31591470945694       -0.15627207343173
H            7.95062119903630        1.67738098287949       -1.67507628159030
H            6.87042148841156        2.93303796926871       -3.48944353631477
H            4.42992019740275        2.82167213493519       -3.77212173568975
H            3.08032005063451        1.46542192633061       -2.24087616287487
