174
 energy: -37.934812332446 gnorm: 0.000797057713 xtb: 6.5.0 (97a52f5)
N            1.43267744928576       -0.21737835198136       -0.36583854565620
C            2.57098876575920       -0.24442220165054       -0.12752959413320
C            3.93662524992596       -0.27714950526417        0.16053542222426
C            4.48672982615535        0.51163937999413        1.13048925148198
C            3.82297897861844        1.42333738070658        2.03264878724666
C            4.60528464975646        2.22834592659455        2.87396653779368
C            4.03009046917447        3.09644180305808        3.76516425980707
C            2.64259560714484        3.19445246107112        3.87361644855865
N            2.04144838691236        4.08085310544283        4.82045663099816
C            2.63825065740273        5.35779764254112        5.09184129292898
C            2.63623955630294        5.89010544625236        6.37903533608935
C            3.19255463272880        7.12032091663991        6.63023032466453
C            3.77188693725881        7.86283083924673        5.60371047977933
N            4.33663284898853        9.15728034348074        5.86118197855994
C            5.04902935085890        9.39827088125137        7.08222764683736
C            4.96368787748318       10.63068568129958        7.72519980756716
C            5.64627803548180       10.85995235724110        8.89837626367041
C            6.42637882959170        9.86346359861259        9.45171665776454
C            6.52075549296681        8.63536177345970        8.82665011158362
C            5.83889907538661        8.40366179373590        7.65346094213348
C            4.17478884651663       10.20920949755095        4.89958483005978
C            5.19219145761479       11.13365503851640        4.67632481816103
C            5.03623560833288       12.13996424656707        3.75001227986758
C            3.86235967673744       12.24226264337786        3.02928001854034
C            2.84397009864422       11.33299289785309        3.23877311046444
C            2.99761578430583       10.32584819194363        4.16445604209652
C            3.77974960535919        7.32718267122386        4.31792366094782
C            3.22274421038889        6.09767419391192        4.06657076036295
C            0.85264825290421        3.68399508264438        5.52028638903950
C           -0.13592161613712        4.61263140645493        5.83752563232641
C           -1.25898911304817        4.23232953683758        6.53061938627318
C           -1.43487142630191        2.90956084891845        6.93095943107709
N           -2.59979200679053        2.51365740095038        7.67069827373611
C           -3.87775674610071        3.07766589855374        7.34668695473545
C           -4.80891183959145        3.35345676802711        8.34482303913232
C           -6.03385478522420        3.89781746960834        8.03174142087386
C           -6.35187450699221        4.17724773327056        6.71700172906578
C           -5.43882779468188        3.91022752555757        5.71560008262646
C           -4.21316187772985        3.36609972877018        6.02621077708671
C           -2.47887459947149        1.55462488201990        8.73024577095026
C           -3.48646941197649        0.62293737599794        8.96733686718353
C           -3.36448345022714       -0.30176613062123        9.97983734561227
C           -2.23457024389957       -0.31427062535589       10.77419020008026
C           -1.22612861839538        0.60293540636376       10.55173122476741
C           -1.34604380432759        1.52872134951676        9.54007567097786
C           -0.45015382626036        1.97959573991233        6.60629208505066
C            0.67286294217097        2.36001460700389        5.91434748381206
C            1.85591913533418        2.39839475797285        3.04073172285896
C            2.42968654204311        1.54178380678523        2.13900251618147
C            4.76008936638308       -1.17628307993471       -0.65225651745914
C            6.05314952064783       -1.55897395826442       -0.27516245338655
C            6.79142454170254       -2.41107559497213       -1.05457249631174
C            6.29282315729511       -2.91994412013280       -2.25996773359029
C            7.11725751125271       -3.82389080192291       -3.06609865750504
C            8.23799394154588       -4.37258743613776       -2.44025891743433
N            9.17136005184286       -4.82476452818032       -1.91326350198555
C            6.82463931810697       -4.08656381693145       -4.37420753373582
C            7.52205138350562       -4.95654239118852       -5.29247403465704
C            7.13120140846995       -4.97044346686602       -6.63981670767309
C            7.74947187283308       -5.78546850784130       -7.55239495430517
C            8.78026990470800       -6.64146826242874       -7.16338717094373
N            9.41811474207222       -7.50436102213743       -8.10788636878632
C            9.66891715046329       -7.05534517603291       -9.44772884729392
C            9.59726029555939       -7.93810446885894      -10.52282620864941
C            9.86756588542044       -7.51196024079298      -11.80012447817524
C           10.21812603817718       -6.18699981565516      -12.04963995659488
N           10.52055690993898       -5.74462866024596      -13.38140475692102
C            9.77805179833078       -6.26011453825680      -14.49472248625744
C           10.40045601815247       -6.49421750273358      -15.71837819587289
C            9.68780977804736       -6.99270889903882      -16.78535261640873
C            8.34080383488491       -7.26681663674011      -16.65089538455761
C            7.70885585659171       -7.04020803641079      -15.44381646413474
C            8.41949810866205       -6.54190158547579      -14.37535361386269
C           11.57433124864843       -4.79504727338523      -13.59510805962582
C           11.46093899089690       -3.81375633243336      -14.57682906357159
C           12.47089707616424       -2.89991763041375      -14.77674333114870
C           13.61268679716621       -2.94850543111353      -14.00097213149398
C           13.74052800079557       -3.91582406226984      -13.02334473466553
C           12.73183274806323       -4.83053695598226      -12.82137983517774
C           10.28247473473017       -5.30277353908156      -10.97530468218094
C           10.01359324113536       -5.72916833365610       -9.69811573750760
C            9.83002148784536       -8.81974081915118       -7.70592517273442
C           11.02349984181596       -9.37023699198808       -8.16723806138882
C           11.40681927189899      -10.63267870075937       -7.78576602128458
C           10.61030313353130      -11.39028115113882       -6.92998189177605
N           11.00430469895844      -12.71418123143191       -6.53817257972413
C           12.38060887919782      -12.99201159351921       -6.24698979674568
C           12.94679502847593      -14.21965921945171       -6.58117397497738
C           14.26875588153351      -14.48281944681410       -6.30168498813631
C           15.04994161002606      -13.52568807848506       -5.68402354182159
C           14.50343265956750      -12.30262945330452       -5.34742312685755
C           13.18190085057651      -12.03692015491120       -5.62636665061717
C           10.01662534582061      -13.74856966437285       -6.43303904768939
C           10.11122021199379      -14.72846841550146       -5.44799497584394
C            9.15737746294978      -15.71574089394122       -5.34509123500006
C            8.09115276549920      -15.74306094716589       -6.22278505062866
C            7.98240875480941      -14.77775568492589       -7.20464498338577
C            8.93503356588457      -13.78964777145817       -7.30952900274053
C            9.41938924539870      -10.83767914096797       -6.46503446349741
C            9.03652599956851       -9.57561776068016       -6.84601774371823
C            9.17283018092793       -6.63816000833077       -5.82479942199222
C            8.56701106356008       -5.81246920754239       -4.91565849398500
C            4.99407938027536       -2.54928173842618       -2.62970269267653
C            4.25004998704080       -1.70868959582023       -1.84266126134379
H            5.55595990855862        0.47895503910821        1.23432500568332
H            5.67783221227982        2.15779190986016        2.81270610957947
H            4.64323303810947        3.70166584066948        4.40968271238387
H            2.19444761932280        5.31879341260527        7.17646473275902
H            3.17759964512740        7.53223748677642        7.62401108291269
H            4.34559074209890       11.39922210632384        7.29520323678859
H            5.57060386486975       11.81785704497735        9.38641092570954
H            6.96051838731225       10.04392291129562       10.37014662526667
H            7.13006200200660        7.85771734132404        9.25734704282046
H            5.91573314338916        7.45229564527086        7.15688475560408
H            6.10858907411011       11.04193090185781        5.23260429440086
H            5.83210664979376       12.84784539626022        3.58560232959535
H            3.74141403046861       13.03020708460647        2.30406380637434
H            1.92746275923121       11.41244953742287        2.67731460352994
H            2.20467143685403        9.61964499395771        4.33825963951324
H            4.23367354404782        7.89251348517164        3.52297751274524
H            3.22016707405162        5.69426591888324        3.06917284751775
H           -0.00703998870194        5.63464062038706        5.52698928471278
H           -2.01439319201254        4.95560704555249        6.78312689386000
H           -4.55103256207774        3.14391441289401        9.36813207890000
H           -6.74505518781535        4.10743148927362        8.81385364097127
H           -7.31117165776403        4.60325963769299        6.47287846274962
H           -5.68675112500858        4.12669818891034        4.68938574581841
H           -3.50122485279103        3.14695505113639        5.24985510976891
H           -4.35859827012779        0.62926971718845        8.33725816699053
H           -4.15081424864245       -1.01855609513026       10.15132636446552
H           -2.13953735628537       -1.03930575726492       11.56584142157113
H           -0.34422727161854        0.59402266262520       11.17119498279459
H           -0.56731489292584        2.25074528136722        9.36711591478689
H           -0.58604761407012        0.95448431817586        6.90350538943784
H            1.43614500664940        1.63966668029026        5.67762677111292
H            0.78512908597249        2.48113279964018        3.10788044972184
H            1.79344554004728        0.95609948994201        1.50301844348388
H            6.46362548689750       -1.20980856848054        0.65526710482416
H            7.77790400023655       -2.70535504659649       -0.74069574619390
H            5.98548500131973       -3.56602343360508       -4.79820893706045
H            6.33090551803344       -4.32373112231032       -6.95657009467458
H            7.43445250525088       -5.78949244730692       -8.58116834000540
H            9.32412017471050       -8.96191827403996      -10.33655138858257
H            9.82364534593426       -8.20129860337683      -12.62495662418168
H           11.45230802719486       -6.28916185724500      -15.81382966322288
H           10.18206591437488       -7.17078774661455      -17.72632144449865
H            7.78369822047799       -7.65719368833758      -17.48670843636398
H            6.65757802386668       -7.25274557488405      -15.33856993521621
H            7.93088112812530       -6.35467504200564      -13.43528684867259
H           10.56444978491511       -3.77408565040330      -15.17041428864203
H           12.36952894872012       -2.14413727216879      -15.53837098782207
H           14.40247933162970       -2.23221558977587      -14.15794201083308
H           14.63148175667443       -3.95503159832296      -12.41825472608219
H           12.82899325161849       -5.59152268791227      -12.06695341614941
H           10.54502409847482       -4.27642502037574      -11.16302654065007
H           10.08013290453818       -5.04504903163919       -8.87046738396272
H           11.64511026086489       -8.78656231798610       -8.82328175875661
H           12.32543303183060      -11.05732020590574       -8.15096746754579
H           12.33609060900073      -14.95701951015507       -7.07204617102308
H           14.69499583398928      -15.43661503894622       -6.56642127608801
H           16.08462192477312      -13.73289003062134       -5.46513761438459
H           15.11189099442994      -11.55581843263468       -4.86415690082438
H           12.74769624880409      -11.08964863040732       -5.35841025123281
H           10.93680867444806      -14.69448477342184       -4.75888219760729
H            9.24145641193555      -16.46706580933077       -4.57701105836526
H            7.34453984481288      -16.51590179281987       -6.14097448508074
H            7.15074938842000      -14.79819962047876       -7.88985919118612
H            8.85977565422791      -13.03938563787063       -8.07705525679858
H            8.80619087276367      -11.41465529798011       -5.79520177821047
H            8.11148665023434       -9.15651330188097       -6.49074689522446
H            9.97678942677221       -7.28548034893197       -5.52056890478372
H            8.90932696687841       -5.82307977966169       -3.89837657604377
H            4.55817119119710       -2.95379438971061       -3.52548222457174
H            3.24784233751238       -1.44738987126972       -2.13505442246534
