170
 energy: -37.370362421182 gnorm: 0.000566216210 xtb: 6.5.0 (97a52f5)
N            0.97599953992736       -0.13714927293562        0.82974857151371
C            2.11956319383881       -0.22515812248545        0.63406523437497
C            3.49066125735972       -0.32202802327106        0.39496286525694
C            3.98699221814058       -1.00379551118886       -0.68233110136046
C            3.25677112094913       -1.64799305473605       -1.74627798561054
C            3.95722019842856       -2.45319121379687       -2.65797231861294
C            3.31571292335245       -3.07313885003950       -3.69832156492884
C            1.94485521752227       -2.90324891099031       -3.89523136408580
N            1.27577019782515       -3.53582337536588       -4.98992813667417
C            1.60830046600239       -4.88292364460236       -5.35582051714968
C            1.60172710890564       -5.28527362680092       -6.68964944993558
C            1.89054411070576       -6.58303401896745       -7.03161545883256
C            2.19295456107112       -7.52462052426923       -6.04848841183128
N            2.48577258030111       -8.89802258707926       -6.39593369757368
C            3.84502397971040       -9.27673110856437       -6.62684177946511
C            4.79626974208445       -8.29865215930826       -6.90122610226774
C            6.11155402719135       -8.63059972560198       -7.14735461250449
C            6.50300370103465       -9.95140641069268       -7.12159421541991
C            5.57367620500737      -10.93618779822858       -6.84086266814452
C            4.25488911291853      -10.61380034617502       -6.58699441675387
S            3.14867908096126      -11.93168023419751       -6.18464016199372
C            1.59165827979082      -11.19439751997263       -6.57850726221917
C            0.52702536516713      -12.03920233643008       -6.82488397758989
C           -0.73199960979058      -11.53407388414911       -7.09294775247943
C           -0.93029730998200      -10.17085306131295       -7.11155444282810
C            0.12731155307935       -9.31894572751218       -6.87415165808851
C            1.40468583880885       -9.80809137971728       -6.61666034501192
C            2.21130433337918       -7.12027450095914       -4.71525525070632
C            1.92413658388014       -5.82185213882961       -4.37607534527419
C            0.25232214617803       -2.82823856668560       -5.70512953513525
C           -0.87790056208275       -3.48523475321144       -6.18310077103279
C           -1.84577010026728       -2.80137037092120       -6.87701618567256
C           -1.73064282204250       -1.43234509808666       -7.11626869222266
N           -2.71853262167469       -0.72817086724090       -7.87639220861310
C           -2.49639058239239        0.62464043200157       -8.31103760542083
C           -2.33699695358107        1.66530456614618       -7.40204658681541
C           -2.13273611725051        2.95609324542914       -7.84297796057870
C           -2.09595513343460        3.22747976959982       -9.19514208998679
C           -2.27368336966312        2.20543706685355      -10.11030584897055
C           -2.47998490757617        0.91096792685636       -9.68066495174838
S           -2.72365739401009       -0.39735471094916      -10.85139647351670
C           -3.90368359731826       -1.34511824115807       -9.92887242506722
C           -4.93279438906262       -2.00017802902973      -10.57273078181827
C           -5.85970790954124       -2.72968747591022       -9.84999005390281
C           -5.76199842274964       -2.79954465210097       -8.47557580855762
C           -4.73617828757609       -2.14991449949712       -7.82141577881221
C           -3.78668302532069       -1.42819307912721       -8.53693516615969
C           -0.59022576285289       -0.78300185848464       -6.64566620142261
C            0.37816475059425       -1.46395677308892       -5.95089099079058
C            1.24021383641703       -2.10074712388963       -2.99767951248303
C            1.87565273391338       -1.49911171158603       -1.94459265963144
C            4.37658888251232        0.30584833817478        1.37554809493073
C            5.71406385651052        0.61424434188565        1.09219537423576
C            6.51068565949489        1.22042457052191        2.02770090347356
C            6.03027720936800        1.53434881072894        3.30603006735229
C            6.90806073271193        2.18055215121705        4.28207173810724
C            8.06757417633719        2.77977970513213        3.78933751496073
N            9.03169886710138        3.28498541959681        3.37837899302937
C            6.61770503070276        2.16680524631049        5.61893167075993
C            7.34298240743104        2.78750218576712        6.69982994115961
C            6.96257325631866        2.50226780161073        8.02028947177526
C            7.59407738606695        3.09009745153086        9.08479642774614
C            8.62391347968658        4.01027187284655        8.88574682809728
N            9.25695478345871        4.64994234930796        9.99717257850879
C            9.50616305221826        3.90828582285961       11.20106375207844
C            9.30001058655219        4.48444294208472       12.45261753997197
C            9.54697298467884        3.77292736354375       13.60019171833629
C           10.01573881253326        2.46114887479794       13.53446049795845
N           10.26633965691392        1.69816486755364       14.73747517910565
C            9.22979624545135        0.84756130713563       15.23434888426674
C            7.91949877689009        1.03423635220833       14.80365093191880
C            6.89235389034242        0.24610115745638       15.27735335107654
C            7.15624520939117       -0.74864133449792       16.19339315826593
C            8.45338632233855       -0.95506704378251       16.62591690811535
C            9.49031280761996       -0.17480233517671       16.15304296375892
S           11.12151142886998       -0.54306947863397       16.72248758824856
C           11.93777807779535        0.99392336761170       16.41570515485231
C           13.09199219626724        1.25741974852236       17.12724707174769
C           13.81261853937484        2.41661555713095       16.90608151350569
C           13.37821243426295        3.31965610414297       15.96077554441237
C           12.22328869721349        3.06966043042949       15.25056976577747
C           11.47501912602671        1.91675485374414       15.47063076662425
C           10.21332095409775        1.88151442162735       12.28275599104039
C            9.96198288426685        2.59332702687164       11.13655209680389
C            9.60181961512075        6.04080772170102        9.92871940331119
C           10.72024327708874        6.53641839740785       10.59280273636389
C           11.02697093812791        7.87435031087907       10.54958897961236
C           10.23662382548686        8.77294587819178        9.83373681878582
N           10.52966331700696       10.17431038452548        9.82463104383636
C            9.61252848662918       11.11951560063119        9.24717594989571
C            9.28863329291487       11.08679109193301        7.89491365462639
C            8.41477868501190       12.01046907379359        7.36063823130961
C            7.86124754572102       12.98495782686657        8.16522517553242
C            8.18944404125672       13.04118113196856        9.50792929888661
C            9.06276584108854       12.12288700897446       10.05278356931821
S            9.49416746826483       12.20099788778611       11.77034712709746
C           11.18731629514298       11.69553420800887       11.62782146572068
C           12.15262531369429       12.24631102073208       12.44483453284940
C           13.47571936549413       11.86097252319960       12.32428302138318
C           13.83756948735410       10.92583707469820       11.37666484864638
C           12.88057373386421       10.36756527633944       10.55520242134454
C           11.54362795269816       10.73047005194433       10.67914242014939
C            9.11199302101362        8.27191582126153        9.17959612545564
C            8.80251383273098        6.93524378354068        9.22246053294184
C            9.01249606295726        4.29792956940074        7.57703379928871
C            8.39700125211649        3.69480694021254        6.51264748375214
C            4.68967399484090        1.23622091745308        3.58530181410263
C            3.88719267321505        0.64994584198990        2.64256826098886
H            5.05539917485055       -1.10657083885647       -0.74104594110245
H            5.01767167890044       -2.58540273373514       -2.52805106738018
H            3.86516786383840       -3.68643791082132       -4.39086802400398
H            1.36969122344340       -4.56017309706223       -7.44981515029376
H            1.88673319777069       -6.89256309252471       -8.06214349349896
H            4.48907459905422       -7.26848407880847       -6.92730491850239
H            6.83182809715737       -7.85816252808312       -7.36170339077054
H            7.52971683402223      -10.21609425262666       -7.31376493646590
H            5.87124997554411      -11.97121973535964       -6.80688167411893
H            0.69045377002750      -13.10379224518970       -6.79330752564711
H           -1.55489976829403      -12.20447137168378       -7.27881371173635
H           -1.91054910586274       -9.77065128964158       -7.31252806349657
H           -0.02882339355883       -8.25547770997711       -6.89085275116904
H            2.44826140291907       -7.84745032725086       -3.95854281750036
H            1.92324310105986       -5.51527207763728       -3.34485108894013
H           -0.98231184881887       -4.53981885136167       -5.99729687529262
H           -2.69778419338777       -3.33128530735430       -7.26118253815466
H           -2.39208148088517        1.44981164417710       -6.34920864596865
H           -2.00542457693045        3.75388995369565       -7.12979802996218
H           -1.93527655988571        4.23594326251401       -9.53907129583411
H           -2.25597615755361        2.40816273135438      -11.16789681544157
H           -5.00548900735521       -1.93161140827455      -11.64507028215824
H           -6.66153751658210       -3.23709405324479      -10.36057281898412
H           -6.49077329987755       -3.35821258023959       -7.91160900911113
H           -4.66786819022984       -2.17804714903411       -6.74789701205137
H           -0.45829077964011        0.26298991174340       -6.85220290753252
H            1.25744128527836       -0.95300850305319       -5.59950813007241
H            0.18003995844488       -1.97938825367041       -3.13621946715612
H            1.29785104133033       -0.90921029028647       -1.25855266547899
H            6.11187358973984        0.40903587525338        0.11447505453491
H            7.52982640252895        1.46796856198416        1.78615888589750
H            5.75334488673029        1.60373713856862        5.92126094787648
H            6.15913443998885        1.80667873243322        8.19231523044555
H            7.28847869856090        2.86638659769452       10.09185598175524
H            8.93374611608163        5.49467939279951       12.50503546716191
H            9.37687155084343        4.21480380930822       14.56644182142135
H            7.71287898371406        1.81494012966902       14.09358200486297
H            5.88424623941119        0.40872477149043       14.93288371032920
H            6.35698359104642       -1.36691264512418       16.56758794160347
H            8.67290090369087       -1.73754289147234       17.33341220173172
H           13.43093322055679        0.53675808359862       17.85308670423569
H           14.71349767007655        2.60822224240502       17.46542134638612
H           13.93927925812242        4.22148227900555       15.77796207707849
H           11.88696927460286        3.77653712568242       14.51400964797897
H           10.56827766916826        0.86702716501326       12.23366706763140
H           10.12438157023425        2.14785087428964       10.17078709142863
H           11.34181192401386        5.85230056811074       11.14345546699689
H           11.87720194351238        8.24140567203597       11.09410175209639
H            9.74357459107633       10.33909215166885        7.26887932439819
H            8.16744105335310       11.97279010445918        6.31244145365108
H            7.17818851385598       13.70606516456211        7.74745031687358
H            7.76941708933704       13.80301847348312       10.14283442932375
H           11.86120611676199       12.98293786643973       13.17447936966529
H           14.22385703540027       12.29686979261267       12.96566781278679
H           14.87002006738279       10.63445133667698       11.27456290626165
H           13.15905290856620        9.65853065580812        9.79519356855918
H            8.46404832360389        8.94999691857793        8.65548520263314
H            7.92390704354726        6.56422059172536        8.72454160951383
H            9.81924507478227        4.99210775170538        7.41837720759025
H            8.73531912804009        3.92271214947348        5.51955540886827
H            4.27136786768510        1.50684384018916        4.53822485753783
H            2.85475511385451        0.44620018071878        2.86804009621770
