51
 energy: -11.086145198364 gnorm: 0.000515645592 xtb: 6.5.0 (97a52f5)
N            1.15011078114491       -0.48045076209219        0.48237405868895
C            2.28392393800339       -0.28425008444410        0.31591212474105
C            3.64281524062193       -0.03899034149153        0.11074846570351
C            4.15483291334798        1.21988935470158        0.17020262528512
C            3.46585029620257        2.46023675199052        0.46164190882818
C            4.19440773097910        3.65595175868540        0.43189875897979
C            3.59832001779819        4.86007040285805        0.70440697112911
C            2.24326979216454        4.93257237670628        1.02518350911036
N            1.62186211907824        6.18596469595949        1.30923053558863
C            2.09182341104283        7.38690354317055        0.67781079514834
C            2.16547833193400        8.58128832600203        1.38901764380247
C            2.61091421306329        9.73291763309157        0.78183076294942
C            2.98812423478026        9.71390214088138       -0.54605065301749
C            2.91736078244738        8.53799733676130       -1.26581877034548
C            2.47302233673839        7.38469223418673       -0.66124381710536
C            0.51507921059402        6.25816548680354        2.22088403516506
C           -0.55681519757987        7.10995965787326        1.96901343683178
C           -1.61625721260462        7.18271008170936        2.84401181797336
C           -1.62461302461696        6.40880402255596        3.98713075306666
C           -0.56756887907688        5.56152421634104        4.25281759274136
C            0.49311794818715        5.48651133823196        3.37956284191536
C            1.51103264994036        3.74674514067806        1.05755989202760
C            2.10514758016433        2.54394500692479        0.78136055862550
C            4.48010035028229       -1.20742740894232       -0.19697201889561
C            5.87748405644703       -1.15508621453132       -0.19650255488323
C            6.62440176301451       -2.27044443948678       -0.49132500418398
C            6.00629854443813       -3.46882369160268       -0.79268896185315
N            6.80733422201136       -4.64794030719382       -1.10580405088931
O            8.04205707627995       -4.55002047248734       -1.06700122029018
O            6.22090187568972       -5.69948525968511       -1.39843595424406
C            4.62685678530691       -3.54395640936871       -0.79040737532891
C            3.87609957797181       -2.43299230645196       -0.49396783001877
H            5.20220055414544        1.33190475836092       -0.03980094866660
H            5.24293973009986        3.62144243825550        0.19139410128491
H            4.17632308399454        5.76711890823266        0.68878837219833
H            1.87611582456471        8.58680953125264        2.42513850572072
H            2.66639847929208       10.65056116312352        1.34382829899805
H            3.33648207872942       10.61627356984305       -1.02077718630721
H            3.20884841124231        8.52342468654123       -2.30306204364057
H            2.40315568749662        6.46780596496199       -1.21966168164194
H           -0.54773641797995        7.70412792668587        1.07226936108623
H           -2.44161319395478        7.84336440694114        2.63576171190226
H           -2.45494295097297        6.46594815300125        4.67147498021514
H           -0.57289496049633        4.95852888946183        5.14580916008565
H            1.32523782776755        4.83691015882775        3.58686219333803
H            0.46083434816560        3.79246443299649        1.28663020380458
H            1.50457948560194        1.65507137924999        0.80799092476633
H            6.38253961969110       -0.24125789165398        0.05814627872070
H            7.70074642217299       -2.23381885693719       -0.48845463433300
H            4.15963936283822       -4.48623911327667       -1.02233204166635
H            2.80181314180613       -2.49836431420228       -0.48601643311312
