49
 energy: -10.606757733841 gnorm: 0.000899660567 xtb: 6.5.0 (97a52f5)
N            1.28717546349344        0.11546988247974       -0.71581241018731
C            2.41530231200390        0.06548804406434       -0.43902120246663
C            3.76752807483545        0.00427724565770       -0.09577114302460
C            4.26870128290596       -0.99962648591918        0.67263383870269
C            3.57487005634939       -2.14235309996492        1.23201126991296
C            4.29965640442358       -3.05346732793019        2.01083829281679
C            3.69798368130608       -4.15435232002602        2.56463645556150
C            2.34042914507292       -4.40430955769364        2.36664771109905
N            1.71445967983858       -5.55363076771380        2.94007678194160
C            2.16445623709160       -6.06375478790150        4.20497702055922
C            2.23129140917058       -7.43509276643356        4.43657909823473
C            2.65690346056838       -7.92179825742824        5.65179083315593
C            3.02255637359772       -7.04905256315614        6.65779528609834
C            2.96039850930084       -5.68608201026868        6.44402227838621
C            2.53518667415814       -5.19688842074631        5.22980000627154
C            0.62889943035280       -6.20292277555628        2.26081767508965
C           -0.43820423139275       -6.73960154929581        2.97626303290020
C           -1.47784810458055       -7.36354834076878        2.32463829740823
C           -1.47137982781550       -7.46363623553850        0.94724227861820
C           -0.41926697502419       -6.93830799638236        0.22331237568393
C            0.62210041761784       -6.31521263070373        0.87279829602305
C            1.61140123647617       -3.50151360077879        1.59358263364416
C            2.21178130924836       -2.40024406521508        1.04184517059642
C            4.61990595578330        1.10310575321195       -0.58327190499757
C            6.01427109799409        1.02029601330505       -0.60247499931543
C            6.77869749185587        2.06900096450385       -1.06408663263187
C            6.17470971058385        3.22308569964133       -1.52027756153481
C            4.79865787358008        3.32326876155682       -1.52001669843279
C            4.03239937982864        2.27631457824917       -1.06144213813382
H            5.31176531965679       -0.94481062540996        0.92478439304418
H            5.35017027806966       -2.88130384583604        2.17188510101003
H            4.27263148193443       -4.85078762540967        3.14976360263254
H            1.95191469547074       -8.10931859912682        3.64605808319189
H            2.70536122135162       -8.98539148623714        5.81823968700658
H            3.35532291512512       -7.43108883351472        7.60892967700135
H            3.24337120219112       -5.00447852757205        7.22934810595577
H            2.47318889722577       -4.13618486427935        5.06051498087665
H           -0.44190167225697       -6.65025415620085        4.04841516742091
H           -2.29876939701996       -7.77309657038161        2.89005855348828
H           -2.28649017476736       -7.95079552226327        0.43777441626461
H           -0.41322802966169       -7.01626243843675       -0.85149472182381
H            1.44957087917893       -5.91358763003874        0.31466818644747
H            0.55952789996724       -3.67559516564730        1.44827349173855
H            1.61597002541385       -1.72569977007804        0.45712584784474
H            6.50140823356080        0.11869796748540       -0.27731814963144
H            7.85336010256705        1.98684834194575       -1.07351155587494
H            6.77588990509588        4.04173017828570       -1.88075114839283
H            4.32358798815774        4.22073846027173       -1.88102460076718
H            2.95894470011478        2.35251932919772       -1.06877305940764
