35
 energy: -7.618700910491 gnorm: 0.000695440994 xtb: 6.5.0 (97a52f5)
N            1.44420800915369       -1.51795726592581       -0.32278954563892
C            2.50123466463149       -1.03993915887742       -0.25434861721792
C            3.76121990499974       -0.43872209960176       -0.21250286251498
C            4.21453501358275        0.40167611411353       -1.18004506596732
C            3.54163191458738        0.84123513344400       -2.38265169948217
C            4.21235642061958        1.71521350738862       -3.24452003776328
C            3.61675722957066        2.17076703103313       -4.39456532113384
C            2.33599193796029        1.77040258882055       -4.72205593105625
N            1.70674345431721        2.25818729755026       -5.94526013722306
O            2.35390975738068        3.01588638165241       -6.67909259260241
O            0.55163367986120        1.89478879225689       -6.19970219042928
C            1.65645439647092        0.90536387240545       -3.88654345359183
C            2.24665586715539        0.44644396433419       -2.73594609209987
C            4.59641348627020       -0.73949876981329        0.92414346123378
N            4.23260723407112       -1.52010549900654        1.90520163463066
C            5.20512218818798       -1.64634931820840        2.86996482978751
C            4.96898678860291       -2.49752272676951        4.04986708923277
C            5.86797664635847       -2.57836953851830        5.10871088634153
C            5.60281039106947       -3.38671992186083        6.19159564892879
C            4.43928366382174       -4.12600694975733        6.23781596360324
C            3.53710778470783       -4.05460060394046        5.19749522059445
C            3.80035131988012       -3.24671917385803        4.11485310480587
C            6.34915198609275       -0.94467119273539        2.62462513649247
S            6.21366630606813       -0.09677742443021        1.14688354240399
H            5.20325395070683        0.79892558653687       -1.03487984974250
H            5.21029652893928        2.03339559507178       -2.99649593104730
H            4.13193291758745        2.84460262425976       -5.05844571524612
H            0.65919288660045        0.60203806934027       -4.15896006222916
H            1.69814136260614       -0.22645346391784       -2.10402661599123
H            6.77392591375229       -2.00001264774669        5.08193630791742
H            6.30570380057771       -3.44113550816995        7.00628671387510
H            4.23469726213303       -4.75764710609310        7.08641008236147
H            2.62669385509133       -4.62968232692760        5.23179262283757
H            3.10229907230152       -3.18017643855732        3.29821005302222
H            7.21780240429233       -0.91768942351623        3.25092942290462
