36
 energy: -7.850693685329 gnorm: 0.000451134345 xtb: 6.5.0 (97a52f5)
N            1.21628953632183        0.16920543994742       -0.11039432224252
C            2.37339641322779        0.08503295432191       -0.02167558147098
C            3.76697640956587        0.02284647379752       -0.01244277564785
N            4.45136433003035        0.33689368656994       -1.16022029243086
C            3.84453487251511        0.76049387191662       -2.21104499074493
C            4.46204935855820        1.06564687593748       -3.46227879515693
C            3.70421830902203        1.64720084206789       -4.48039499067492
C            4.26430513304280        1.95286719086904       -5.69562763384139
C            5.60073279500921        1.68220316826891       -5.93223748980401
C            6.37157687767294        1.10352104224289       -4.95604685502683
C            5.83024887015255        0.77824207364036       -3.70844596304264
O            6.59827233554647        0.17991800540706       -2.74585312710934
C            4.44951243874562       -0.36107978633603        1.11921038769915
C            3.76525614780978       -0.72611937531790        2.27872108505208
N            3.26942361459588       -1.05081241338472        3.28000963275880
N            5.82214696290762       -0.37339317247680        1.12846254212609
C            6.48503207115613       -0.78900050444625        2.14814096383422
C            7.90824091843052       -0.79517232984590        2.26853652339414
C            8.50301621677128       -1.39941621811699        3.37770492622924
C            9.86729490670409       -1.42276896860542        3.52656337574230
C           10.68029046762265       -0.83800855488824        2.57136381478222
C           10.12770849334725       -0.22866465265714        1.47346580675733
C            8.74159893290088       -0.18625356928679        1.29390160871291
O            8.19469851313223        0.44290600703238        0.20785957102537
H            2.77926931564496        0.90282459719155       -2.14032415515949
H            2.66468523391554        1.86064207484846       -4.29918047115409
H            3.66328090173173        2.40483252884713       -6.46727156359661
H            6.03580982604166        1.92423137988109       -6.88786909045554
H            7.40796564134459        0.88821608108248       -5.14523630486676
H            7.51316944540260        0.03193300821425       -3.06995113156837
H            5.91882023889331       -1.17045529778054        2.98116804469415
H            7.87366166989424       -1.85669365264817        4.12191163788832
H           10.30707146648734       -1.89733553569406        4.38815272873149
H           11.75077139923531       -0.85906252816767        2.69275101157499
H           10.76171947641468        0.23067810750194        0.73638141808507
H            8.89473046019740        0.82676115006028       -0.36360954509405
