175
 energy: -37.968104747263 gnorm: 0.000851788321 xtb: 6.5.0 (97a52f5)
N            2.65570467902919        1.99490013686624       -0.44829238247425
C            2.10547522446047        0.97260341063028       -0.30667245284548
C            1.39522542948357       -0.19424223616561       -0.15112249641190
C            2.05968653216965       -1.39488096239181       -0.06642791911900
N            2.56317731488707       -2.44787796624196        0.00774079286436
C           -0.01418363635282       -0.16522782768590       -0.08090207268245
C           -0.72948362613628        1.03896152405470       -0.16676235232284
C           -2.10028452904197        1.04350342252467       -0.10153435342581
C           -2.81154303821884        2.29161047809567       -0.20165309471716
C           -4.14613931324998        2.36651249941744       -0.09427339839441
C           -4.92860257496906        3.58048202638667       -0.21326438199674
C           -6.29932682229791        3.56131926173254        0.06741698742213
C           -7.06196746769346        4.69672662075177       -0.04973298218029
C           -6.49179092102118        5.90138333847528       -0.46143939392801
N           -7.27882228652173        7.08700456553031       -0.60445010679738
C           -8.36042650887260        7.35698331750477        0.30035547462450
C           -9.51604719444068        7.99287577541330       -0.14519965245090
C          -10.54736292490778        8.26568101010642        0.72484564641898
C          -10.44344885282427        7.90970007570946        2.05527029439158
C           -9.30289452928294        7.27924565505935        2.51272925389040
C           -8.27045160110016        7.00516701109178        1.64447010142512
C           -6.93921298481639        8.04318490622365       -1.61673874246727
C           -6.99329897426887        9.41231032189403       -1.35987026150152
C           -6.60658587708729       10.32192603772394       -2.31297576325845
C           -6.15850951075185        9.90182574328271       -3.56832971730733
C           -5.69670658506997       10.87251240256076       -4.57994392733644
C           -4.97291874615182       12.00715212581587       -4.20607825229028
C           -4.49880698583184       12.88459745638094       -5.14841166187742
C           -4.72368160732124       12.66981129715639       -6.51213980921644
C           -4.19776249167374       13.59684201179582       -7.53257641071993
C           -2.91677233148590       14.13887159151031       -7.42366091357082
C           -2.50593130552501       15.30600937349521       -8.23075894500426
C           -1.22197592122568       15.37631310178891       -8.77689777424360
C           -0.82871425142617       16.46593322923916       -9.52001846291365
C           -1.70365268550794       17.51312385771750       -9.73137673455953
C           -2.97432063364006       17.46866501823251       -9.19272674832868
C           -3.37131298207693       16.38151463897177       -8.44825482469259
C           -1.91522398619989       13.55503606375012       -6.50660130213622
C           -1.05991475944549       14.37687403641548       -5.76861870488718
C           -0.11803653704729       13.83729775733307       -4.92234626118695
C           -0.00270360164254       12.46698459931649       -4.79610422156866
C           -0.83104476124825       11.63596021634887       -5.52385881415884
C           -1.77300686827104       12.17108654885125       -6.37225340791480
C           -5.07147966921495       13.91827855835426       -8.68139326976844
C           -4.56723912180169       13.97893350978064       -9.98281762001941
C           -5.39069464801573       14.26939497508097      -11.04652360508030
C           -6.73634884173839       14.49856656698464      -10.83841446101951
C           -7.25727350621458       14.43257950091771       -9.56123948326791
C           -6.43710094903605       14.14302717017711       -8.49447985228590
C           -5.47356356988723       11.54937175369580       -6.88291823115401
C           -5.94233192951877       10.66884612762081       -5.94009026513463
C           -6.12795421383139        8.52967461720339       -3.82920484380584
C           -6.50779945284709        7.62127857614309       -2.87349594370455
C           -5.12572681527457        5.92378019293139       -0.74133731073049
C           -4.36065399789459        4.79253309767234       -0.61952777704752
O           -2.82289277750836       -0.11701313834653        0.05164334128150
C           -2.13283536020791       -1.30858296459718        0.13180607096489
C           -2.91967992001072       -2.51331618176812        0.27194691966265
C           -2.42369963380679       -3.75088060981070        0.44655823973645
C           -3.20731473540510       -4.96426966097962        0.55618495573599
C           -2.56469905867951       -6.17296415973845        0.84474853482496
C           -3.27108627894066       -7.34442038945619        0.94425963080606
C           -4.65236689252042       -7.36534900446793        0.75357086837755
N           -5.38614938205976       -8.58809817466870        0.85256691327357
C           -4.95223226791521       -9.61134751660425        1.76373453804252
C           -4.99048169435633      -10.95350154273461        1.39525090232484
C           -4.57421397977720      -11.93317172120496        2.26803496570656
C           -4.11306907693557      -11.59096102165130        3.52415872334245
C           -4.06994810259494      -10.26392485671476        3.90463222334025
C           -4.48545982523199       -9.28236463101684        3.03359023697523
C           -6.54088570618060       -8.81398332329784        0.03625301981969
C           -7.62789629408168       -9.53713737836515        0.52435971682236
C           -8.73197045599295       -9.76368766345859       -0.25920169250722
C           -8.79544863021287       -9.28220722138852       -1.56944940519872
C           -9.98028685147594       -9.52938294571212       -2.41389008898500
C          -11.26367072428754       -9.55292708751286       -1.86302912469906
C          -12.36615152434603       -9.77807275148847       -2.64842691472376
C          -12.24105490038850       -9.98734498967231       -4.02571122468273
C          -13.41942554198217      -10.23897144210746       -4.87681939409206
C          -14.61617305249970       -9.54908768718544       -4.68239724698643
C          -15.88020654094208      -10.02219656606702       -5.28378455193358
C          -16.79639323729330       -9.11371097888076       -5.81950328658936
C          -17.98056903171164       -9.54658588208616       -6.37133566374221
C          -18.28193317278178      -10.89393283333070       -6.39688066638002
C          -17.39520134062099      -11.80841401298386       -5.86391040864284
C          -16.21047472651826      -11.37984375664375       -5.31034444028455
C          -14.66463229346270       -8.31080733119694       -3.87704426459217
C          -15.73449919310808       -8.06505096840197       -3.01295895663841
C          -15.78936639039911       -6.90916288747103       -2.26782405087966
C          -14.78304934271819       -5.96911902112655       -2.37087318398489
C          -13.72162492120875       -6.18698173780687       -3.22674873943622
C          -13.66335018872205       -7.34061979006844       -3.97459329392016
C          -13.28539122436831      -11.25049624779211       -5.94755028019211
C          -13.80596250948665      -11.02958441615646       -7.22496565490859
C          -13.66944090656309      -11.97436234806019       -8.21631201557382
C          -13.00485332940552      -13.15714178760915       -7.95945642629977
C          -12.47344782354683      -13.39097152873891       -6.70657962120612
C          -12.60839844072406      -12.44915477438490       -5.71200230841373
C          -10.95439304281818       -9.97989951440153       -4.57284824670178
C           -9.85235650472826       -9.75122504373025       -3.78728748527686
C           -7.70209521949005       -8.56113197858742       -2.05629890449455
C           -6.60053075634611       -8.33119001724054       -1.27014940633107
C           -5.29742133975188       -6.16245648476835        0.46569815214024
C           -4.59368591162201       -4.98820141983505        0.36967873915489
C           -0.76100117443110       -1.34437557519351        0.07103364320414
H           -0.19296842555287        1.96211259742964       -0.28690813109656
H           -2.23310827720964        3.18181504597498       -0.36295183484110
H           -4.67870875735260        1.45083393918373        0.09369614558738
H           -6.75464729856115        2.63736369601330        0.37994573221737
H           -8.11710197296910        4.66788881732679        0.15874221742352
H           -9.59264014335301        8.26226896229734       -1.18409141670330
H          -11.43711888860511        8.75768281335045        0.36733439913093
H          -11.25080539209507        8.12455773844102        2.73605199512947
H           -9.21979127529510        7.00403045123815        3.55141332640697
H           -7.37371868441079        6.52680183086047        1.99764471919231
H           -7.32206683954388        9.74464566342578       -0.39085173735350
H           -6.65296694637989       11.37572084024557       -2.09965511128441
H           -4.76340852701076       12.17441133884046       -3.16387852142718
H           -3.93712609046523       13.75087846645894       -4.84470529969230
H           -0.54200653685599       14.55796579108418       -8.61414036169321
H            0.16414982702743       16.50202633694422       -9.93767394748554
H           -1.39422240324627       18.36546007638673      -10.31392005465956
H           -3.65625540868854       18.28728963222527       -9.35481966160682
H           -4.35859123994854       16.35058174209878       -8.02119205405289
H           -1.15266094376095       15.44482332340267       -5.86565973588520
H            0.53127295958195       14.48549673151066       -4.35691412206156
H            0.73485692266790       12.04631965641487       -4.13232340168941
H           -0.73942079849394       10.56641237490096       -5.42788594329791
H           -2.41326096163631       11.52336948864212       -6.94558590820779
H           -3.51955682065726       13.79349782814528      -10.14486724678946
H           -4.98443440568125       14.31774456003174      -12.04357895708997
H           -7.37985587793060       14.72656176287899      -11.67234100458036
H           -8.30818229498684       14.60843566243541       -9.39940433167703
H           -6.84074106332894       14.09371151117262       -7.49785884064044
H           -5.66544937815311       11.37627957180027       -7.92772802863503
H           -6.51740844318430        9.81180512655311       -6.24488743974534
H           -5.77296740787080        8.18608013881591       -4.78527461790103
H           -6.47428048711482        6.56606675944112       -3.08145098956225
H           -4.67573165903981        6.85203783978638       -1.04723017055490
H           -3.31207876258275        4.83862260122425       -0.85234447137471
H           -3.98326198625594       -2.37295894675519        0.23482896901976
H           -1.35866593392710       -3.87334794603480        0.51805870319595
H           -1.49779648086703       -6.17543724487111        0.98854992084669
H           -2.76306422095571       -8.26885148422821        1.15616345070800
H           -5.34222506588610      -11.21190130963650        0.41175006983970
H           -4.60634108849822      -12.96839345754424        1.97006481476009
H           -3.78682979045680      -12.35858438393590        4.20662671742737
H           -3.71099853077678       -9.99646272024751        4.88499714597358
H           -4.46275326219723       -8.24718418002026        3.32633018721216
H           -7.59030835147422       -9.91008496423227        1.53286670286919
H           -9.55597324763928      -10.33656264241106        0.12914334774136
H          -11.38492836338616       -9.37207587034326       -0.80921844832454
H          -13.34746245326528       -9.79599237443253       -2.20718666382904
H          -16.55885755975280       -8.06404619066172       -5.80189515363488
H          -18.67410752606077       -8.83257575827708       -6.78450197681314
H          -19.20931598952749      -11.23124101751691       -6.83015760350309
H          -17.63152605890449      -12.85975754376955       -5.88091288360417
H          -15.52303250226084      -12.09177593304471       -4.88765305007864
H          -16.51654476480066       -8.80008802515341       -2.93126601205267
H          -16.61939587196810       -6.73729231645590       -1.60223298542109
H          -14.82714849871204       -5.06513405006931       -1.78570166543234
H          -12.93747498796616       -5.45230071231506       -3.30953652934993
H          -12.83990759185922       -7.50751679769144       -4.64713185510220
H          -14.31854966897869      -10.10483872638427       -7.42586357167531
H          -14.08187395886389      -11.79054890220761       -9.19487765162554
H          -12.89919991653664      -13.89622197988766       -8.73671103996846
H          -11.95215444189785      -14.31291156918897       -6.50708006070544
H          -12.19735020593361      -12.63080518529400       -4.73391041279685
H          -10.83914575604018      -10.15027011847432       -5.62932936192436
H           -8.86991790126817       -9.76197260574449       -4.22628087329327
H           -7.73727723849742       -8.16853950544656       -3.05763451559018
H           -5.75980307297088       -7.78410629108613       -1.65936385399915
H           -6.36498224459836       -6.16733487136860        0.33169429994091
H           -5.11614826289786       -4.07733458227003        0.13915693674234
H           -0.23377552129659       -2.27728366267085        0.12555913453629
