52
 energy: -11.457860729174 gnorm: 0.000756082073 xtb: 6.5.0 (97a52f5)
N            1.79614601642518        1.04554735792794        0.38264531975725
C            0.89061793309466        0.31550669566334        0.36157722733918
C           -0.14587646831063       -0.61718432580258        0.33290070817125
C           -1.45777723869621       -0.13999076212533        0.35167945815254
N           -2.56162050088584        0.22814339072324        0.36712872338548
C            0.04439377308275       -1.95550790105700        0.28933930130782
C            1.29896648921272       -2.68499715711760        0.26343234959776
C            1.26741405749135       -4.08166814072254        0.21721865074291
C            2.42362885638290       -4.81888263844287        0.18459810981677
C            3.67541179647483       -4.19778370938003        0.18714546752841
C            4.92838975354609       -4.97690257876697        0.15668678023479
C            5.06154802675745       -6.11046865147377       -0.63379350094729
C            6.19868980101444       -7.03993444634347       -0.45891416639692
C            6.85071162068237       -7.57663737347946       -1.57013133412066
C            7.90244232417147       -8.45106567312919       -1.41774567507916
C            8.32343600038021       -8.81423361136749       -0.15452967376280
C            7.68570129787881       -8.30314260764515        0.95765575440544
C            6.63289812597071       -7.42938982556288        0.80952427523675
C            4.08345434703263       -6.42882167608719       -1.69706168537153
C            3.64006848910710       -7.73911119623154       -1.88235968338028
C            2.73849463507207       -8.04501472815696       -2.87617366578121
C            2.26344259936749       -7.05330420086870       -3.71038805438744
C            2.69760269036407       -5.75296136701398       -3.55117117495503
C            3.60076783052015       -5.44316750357487       -2.56026506167288
C            6.04775848085432       -4.49559706434404        0.99833580829754
C            7.34835395909314       -4.41381357917468        0.49882237769670
C            8.37891080889938       -3.95378631572036        1.28641144073591
C            8.13426208886492       -3.55812492355113        2.58572335650176
C            6.85306527792083       -3.62105009914880        3.09497030913406
C            5.81982512005846       -4.08171245184170        2.31111593601572
C            3.70895538923571       -2.80306527748472        0.25013988092291
C            2.55284189133033       -2.06775794357289        0.28318711276832
H           -0.84640954869747       -2.56042345622810        0.27139857562023
H            0.31401174818535       -4.58140327408995        0.20690270543250
H            2.37603790666818       -5.89348829071210        0.15787884201366
H            6.52195067671864       -7.29075164414703       -2.55424356281478
H            8.39786811286941       -8.85295543908111       -2.28621070422663
H            9.14779904273894       -9.49821122751624       -0.03688453338303
H            8.01237200046336       -8.58914994830560        1.94385472326432
H            6.13085992120143       -7.03601776780216        1.67617950412044
H            4.01056366279895       -8.51061037467425       -1.22978395323908
H            2.40249175478453       -9.06090262357878       -3.00342164780262
H            1.55614755698161       -7.29417791586239       -4.48689468847148
H            2.32838203363534       -4.97894399105165       -4.20367348413422
H            3.94423403695389       -4.43054955903680       -2.43910775578095
H            7.53629029011990       -4.71606856629889       -0.51671908287448
H            9.37847995834601       -3.90079784701383        0.88740990276471
H            8.94191245832534       -3.19673341927546        3.20075258295978
H            6.66108013869444       -3.30665959905969        4.10763214005985
H            4.81965701068845       -4.13082385836514        2.70566564647102
H            4.66409795233400       -2.30696759838623        0.26238494817578
H            2.62043801378991       -0.99708331463779        0.32277516994885
