54
 energy: -10.064641163184 gnorm: 0.000756139368 xtb: 6.5.0 (97a52f5)
C            1.34612181200115        0.40779947926744        1.69342389175257
C            2.54440647255776        0.17668941767402        0.76681385992378
C            2.11252689616390        0.36478800023567       -0.69023712081685
C            3.66744669878448        1.15914175840747        1.10704797503967
N            3.04733973162242       -1.20406037157220        0.95749879777666
C            4.12129983553732       -1.69846583630256        0.23860464463501
O            4.61262841380516       -1.08942943526134       -0.70028762959291
C            4.67900822890680       -3.01157736544006        0.66615896213212
C            4.40063854634354       -4.17898716378067       -0.04571681299423
Si           3.26490342259434       -4.16071576704540       -1.52136390576220
C            3.02916602288234       -5.88369627066400       -2.21673051339480
C            1.58789339143553       -3.51496231857126       -0.99977383739004
C            3.98281874000663       -3.08148897859561       -2.87274264655083
C            4.92893842383640       -5.38534728866550        0.34847916414219
C            5.75798543682708       -5.48733613453245        1.46934740370576
C            6.31446121044702       -6.73156672882541        1.89825418180506
C            7.11411281674445       -6.80427982446967        2.98628429735929
C            7.43527760531506       -5.63774489655831        3.74892067024847
C            8.26129807262416       -5.68364019354952        4.87320993057961
C            8.55130182639128       -4.53663497673636        5.58317108821269
C            8.03184119564354       -3.31811883926130        5.19774089857981
C            7.20050960660566       -3.21760177882989        4.08074290478764
C            6.64483896182515       -1.97372805202329        3.64787262424419
C            5.84132989492132       -1.90774488065771        2.56300849099671
C            5.51372960694979       -3.07042437092772        1.80257422740073
C            6.05286907765302       -4.31538676676705        2.20294818068275
C            6.89792709905384       -4.39044155457335        3.34794831957600
H            0.94418916416847        1.41302677278825        1.56978694211345
H            1.63423311534098        0.28385003174598        2.73676191755767
H            0.55109528167556       -0.30512534655428        1.47722946001548
H            1.77084756103922        1.38347453341509       -0.87127010765790
H            1.30095920606817       -0.31478453346982       -0.94555825529652
H            2.94736991034607        0.15991760116140       -1.35898405217150
H            3.34941487928555        2.19022826017751        0.95586481038963
H            4.53404266535798        0.97037064554671        0.47407085316289
H            3.97724089025386        1.04545940629635        2.14504456729965
H            2.76011446265410       -1.65649216859450        1.82636135935790
H            2.60635916078472       -6.54229637941488       -1.46326512607567
H            3.98013621396545       -6.28992837876794       -2.54965938511456
H            2.35168595782472       -5.84613068402529       -3.06520797650170
H            1.11828826906541       -4.21482060112291       -0.31434885742073
H            0.94593098654797       -3.38589406508846       -1.86656116507333
H            1.69772556431809       -2.55902896259645       -0.49895513041763
H            4.90502702717466       -3.52036810107556       -3.24240154814394
H            4.20272897155798       -2.09266753389337       -2.48316857819567
H            3.27980961683192       -2.98926396252809       -3.69570364859918
H            4.70123561859267       -6.27402807223839       -0.21208040701001
H            6.08327713928586       -7.61876495071334        1.33432779616660
H            7.52503291324140       -7.74963736247792        3.29572840559177
H            8.67256674124764       -6.62940512848699        5.18145415665310
H            9.19153251310859       -4.59357069750357        6.44841487498341
H            8.26461434179689       -2.42867603658249        5.75752060215825
H            6.88003218735968       -1.08322419854157        4.20457116576062
H            5.43323059361561       -0.96396894942279        2.24952927935419
