80
 energy: -18.139285442357 gnorm: 0.000510794287 xtb: 6.5.0 (97a52f5)
N            1.51631610344527        0.98631394176092        1.93333983109466
C            0.72767920968273        0.50642288553257        1.22514218702184
C           -0.16699935485774       -0.12823106640169        0.36405151246818
C           -1.39508076939195        0.49046517903275        0.12439954925880
N           -2.42696042644963        0.98318008981466       -0.09250056633886
C            0.08235444122643       -1.30986933497437       -0.24976863115650
C            1.26971732121506       -2.13589561767749       -0.15819603718383
C            1.31098643580653       -3.34518722630721       -0.86225301606890
C            2.41037567681058       -4.16340559336562       -0.80765591183172
C            3.52588353446869       -3.81306353407133       -0.04744513313252
N            4.67075183572037       -4.66482286250676        0.02760558588163
C            5.06429068267922       -5.47029065613675       -1.09208394999460
C            5.66294277509708       -6.71316814905637       -0.89662300455742
C            6.05025912027512       -7.48296367384887       -1.96602373673148
C            5.84293426310203       -7.03843529023309       -3.26642554120417
N            6.23800589112774       -7.85138405032062       -4.38700746685544
C            5.36960294959822       -8.48960025509962       -5.29290852946753
C            3.97740089485965       -8.51534632811581       -5.35368721073390
C            3.37580514678274       -9.24618220838961       -6.34800463224132
C            4.13675397890485       -9.95325348849917       -7.28396304475989
C            5.50965107781685       -9.93882415307407       -7.23676943066156
C            6.13687976517852       -9.20101783006451       -6.23122248749655
C            7.52505615515421       -8.99016772972745       -5.89670024771354
C            8.71386648977518       -9.43819938445485       -6.47536293363049
C            9.90629867835531       -9.04880827128939       -5.91525190449282
C            9.93749271306126       -8.22127734336853       -4.78863735812532
C            8.77731622853242       -7.77444856325786       -4.20629062203031
C            7.55911519177502       -8.16235890145779       -4.76137637754701
C            5.24553194981972       -5.79975591297964       -3.46805030223704
C            4.86831164073570       -5.02556389882396       -2.39795542840096
C            5.42891733303319       -4.72590012572835        1.24620189512128
C            6.82056661433794       -4.78306592501593        1.22165246369275
C            7.53972170433005       -4.85350311011587        2.38992377779598
C            6.89098598914993       -4.86558445648332        3.61962515780083
N            7.64144957099554       -4.94512043584970        4.84320718681281
C            7.54412999488304       -4.05921613751440        5.93401495678863
C            6.77335100688739       -2.91099627798271        6.11163063868498
C            6.88306806582742       -2.21916768452183        7.29228170139791
C            7.74961294317614       -2.64878458572745        8.30172369385467
C            8.51984575600117       -3.77473330008028        8.14109503791340
C            8.42057662825327       -4.48844161945061        6.94542799122992
C            9.07832093556433       -5.67944066808383        6.46515090561425
C           10.02629050781915       -6.52822158566716        7.03940432628865
C           10.45621489559185       -7.61703392465484        6.32076211269455
C            9.95758278574810       -7.87765668564508        5.04094916208638
C            9.02669884990020       -7.05121301675443        4.46205191876242
C            8.58431331570121       -5.93765289207931        5.17490991265233
C            5.50256513993997       -4.80464036532972        3.64818139861933
C            4.78309492715030       -4.73736308070606        2.48058003816692
C            3.49102750620971       -2.61015983659765        0.65671935613996
C            2.39280401092263       -1.79340138891580        0.60302624520789
H           -0.70031185442454       -1.68746475290116       -0.88581105278064
H            0.45783454396246       -3.63374297765990       -1.45200389881816
H            2.41738384716590       -5.09901908249584       -1.33868274522235
H            5.81046935864085       -7.06659490057433        0.10861811973185
H            6.51017128551726       -8.44368988831962       -1.81406832345651
H            3.40216852468115       -7.97102905560438       -4.62627630905227
H            2.30039395807862       -9.27734551249477       -6.40797790640181
H            3.63721194841904      -10.51960773386028       -8.05248313247676
H            6.10142697132097      -10.48299226866649       -7.95130468187208
H            8.68208754497879      -10.07269845176624       -7.34328153911849
H           10.83281396195563       -9.38431466421079       -6.35107560746973
H           10.88755992467676       -7.92886347373768       -4.37277622916085
H            8.78951958034703       -7.13497311789601       -3.34186869188125
H            5.09318522134766       -5.45609070667645       -4.47618132764959
H            4.42679758677111       -4.05763112116758       -2.55735181697865
H            7.32422517048577       -4.76149991492822        0.27124424789706
H            8.61485877720831       -4.88811513144999        2.37026751315368
H            6.11491370074469       -2.58321842691748        5.32734365843929
H            6.29312400093789       -1.33027251652529        7.44388292553416
H            7.81479548262384       -2.08617194388402        9.21832507602841
H            9.19094582962066       -4.11016325333844        8.91180709627548
H           10.40118841257241       -6.32381160443148        8.02659449453338
H           11.18647717180644       -8.28279953545496        6.75018627893308
H           10.30862804904885       -8.74233651492116        4.50226323328879
H            8.63175938869426       -7.24886561692743        3.48177548701006
H            5.00144562274433       -4.82479081914927        4.60004342381951
H            3.70799651411394       -4.70416762003581        2.50409117379496
H            4.35028566059844       -2.32601728664032        1.23872890420360
H            2.40196573361558       -0.87519577699208        1.15912659119582
