50
 energy: -11.910080704768 gnorm: 0.000899948678 xtb: 6.5.0 (97a52f5)
N            1.14219740569428        1.28413103250500        1.56057048391448
C            0.73487574070995        0.78591802965635        0.59232078913698
C            0.30381432544388        0.12835240031415       -0.55999902162221
C           -0.70219901237612        0.73102856142473       -1.31832077747156
N           -1.53653733002001        1.21262371018490       -1.97002203666790
C            0.80070156841342       -1.05444302333866       -0.98402885020828
C            1.83537992364112       -1.86941747059422       -0.37039699646783
C            2.48844791750289       -1.51090262987548        0.83152546697854
C            3.45585707320495       -2.29482990593025        1.39776034083469
C            3.80641617723107       -3.48529998663184        0.76692585221196
C            3.17761414770659       -3.86522105927627       -0.42987225076430
C            2.19681688437184       -3.06021862250049       -0.99459245404416
C            3.76141053987682       -5.12531707295922       -0.83579464927135
C            3.54043694850900       -5.95172523634229       -1.92992355760861
C            4.27665031355770       -7.12494477331352       -2.07036744652545
C            4.02244767195474       -7.96489503568098       -3.22853942610316
C            4.60844061721649       -9.13681681670478       -3.55876340847728
C            5.60130850512753       -9.75313220462761       -2.79676857155286
N            6.42304023360391      -10.21578486244756       -2.11665023218216
C            4.19968006505337       -9.77038265942004       -4.73402407768961
N            3.84034591890640      -10.27878923373771       -5.71657128779361
C            5.23769085496954       -7.44214611810206       -1.08264676835402
C            5.46521139692816       -6.63635735086545       -0.00096539943604
C            4.72261426544253       -5.46611784503435        0.12984180597311
N            4.75291668246428       -4.46541033761247        1.11897693620642
C            5.64017332929834       -4.41405662336431        2.25211073909690
C            5.29283829254874       -5.00541943500948        3.44385699523678
C            6.14276452173503       -4.94978569383090        4.54673618124370
C            7.34275686541812       -4.30560681317445        4.46765135175284
C            7.74776246067709       -3.68363209837626        3.26689824825919
C            8.98237293465517       -3.00903862607660        3.14515489135383
C            9.33934626477121       -2.42190906172701        1.96881230323962
C            8.48794183020332       -2.47717429252704        0.86076803184248
C            7.28968831906285       -3.11966735215970        0.94623696649203
C            6.88949429243378       -3.73683649485317        2.14541220563011
H            0.37563970030279       -1.44792697697922       -1.89210698889182
H            2.22241297162352       -0.59505012694798        1.32410563259999
H            3.94579973017340       -2.01275615889579        2.31253638933075
H            1.72167902799269       -3.36130170931804       -1.90985812747559
H            2.80391056278126       -5.67994939432649       -2.66325754354269
H            3.27004228045108       -7.60377811771017       -3.90932878355183
H            5.81264774836087       -8.34378727357035       -1.17602490405634
H            6.19985211933020       -6.88663521915182        0.74340810002994
H            4.34637197275957       -5.51228067219348        3.51170073054193
H            5.84593987133220       -5.42000079361767        5.46966630379750
H            7.99527103697459       -4.26469592159614        5.32223437659544
H            9.63912638569646       -2.96536781777101        3.99641791640677
H           10.28429534597122       -1.91043565950510        1.88803597627374
H            8.78353609127000       -2.00880186009185       -0.06341369001553
H            6.62993720905088       -3.16649729631735        0.09817223479492
