50
 energy: -8.064242924774 gnorm: 0.015284607245 xtb: 6.5.0 (97a52f5)
N            1.82614308617255        0.77621994547693        2.02115244211217
C            1.17819233228628        0.34001978031770        1.16074899986112
C            0.42289251418306       -0.20322266736074        0.11699847602379
C           -0.60274915497406        0.56458356105691       -0.44071534209901
N           -1.46037696335588        1.18720414923518       -0.91749283524526
C            0.64256736541250       -1.40701560852218       -0.37687709048825
C            1.59548420180874       -2.39446416867121       -0.01967438034789
C            2.46118940734340       -2.23804842847271        1.04189103919048
C            3.33198508175676       -3.15926941947934        1.36507518327422
C            3.42148777090035       -4.29165389095103        0.67117420716381
C            2.59214956325516       -4.50377693469748       -0.40030034537083
C            1.68262561699377       -3.54696014781189       -0.73445795593481
C            2.78680526037319       -5.72767062865185       -1.06978775868201
C            2.17595286116575       -6.13744819996122       -2.16822755028081
C            2.34193874210166       -7.26705524895055       -2.83063821979348
C            3.19927662207902       -8.32411781816107       -2.63705584728891
C            4.32203253467599       -8.40260232841319       -2.01278698690563
C            5.08196426720042       -7.49363823638563       -1.34946203451042
N            5.73383947392433       -6.71445232653684       -0.78569037979165
C            5.85071447100097       -0.01901722680781        1.67261829386119
C            6.02320911653720       -0.42522423784559        2.73714259637323
C            6.61210056639821       -3.96673182929870        2.58377550708782
C            7.37387471571520       -2.94589200298512        2.95104996203911
C            8.65828103694965       -3.08808870122933        3.36617873818422
C            9.41463880046552       -4.17200016390274        3.29661030932617
C            9.41525934784916       -5.06031726798000        2.29726903406167
C            9.18882134880683       -4.77503837895456        1.04218454881933
C            9.10407818463758       -5.62681740537200        0.01772898485248
C            9.22064923722512       -6.92610688842664        0.04929311068151
C            9.11451867314417       -7.81181870510909       -0.95531765988481
C            8.80178609458733       -7.68977954558027       -2.25844700571556
C            8.41979713761308       -6.67735657046622       -2.99167755685888
C            8.21078703284516       -5.44089987095195       -2.66284344274755
H           -1.10357482280472       -4.83195409646553       -1.47196104200240
H            3.05498482476184       -0.73629629765700        4.72842839534107
H            4.61761781324748       -0.52948409666615        3.60651470493415
H           -0.99427734865120       -2.92295409203976       -3.25541213692094
H           -0.13900203724286       -6.44767267191624       -4.62012879451964
H            2.07060559784916       -9.53615188869516       -4.51029644289218
H            6.57840374845030       -9.46876610750867       -1.62780929978509
H            6.48860320277503       -5.67911824331465        0.80523157254449
H            5.61538530404542       -3.86404362994863        2.26421776292329
H            6.95405856899926       -1.94612738140026        2.93095264020138
H            6.80754009635619        0.66518804688455        3.83191824457872
H            8.78264896129645       -4.99497047267998        4.83970130944377
H           11.00584225119215       -3.18040961045850        3.13939385078056
H           11.01564923864414       -5.18269569357014        4.26359212884576
H           10.78709275168314       -9.77085435422577        1.69467175212863
H            8.93563216647212      -10.58997940442925       -4.67243077058957
H            5.62029333762786       -4.67072259482855       -1.58816291669808
