44
 energy: -10.143388571542 gnorm: 0.000318396580 xtb: 6.5.0 (97a52f5)
N            0.22597203482389        0.66282653666368        1.56460620024345
C            0.02360229047919        0.13591114697966        0.54791738345409
C           -0.16044377226347       -0.54217132419652       -0.65796445805510
C           -1.21586411019160       -0.13985532227312       -1.48037238544542
N           -2.08607593807864        0.17348721425800       -2.18580455275742
C            0.61975155101113       -1.56263647627675       -1.07838004669200
C            1.76550258360070       -2.15772110189872       -0.41130595465315
C            2.23617494611701       -1.72507953181787        0.85050519609046
C            3.31722551308063       -2.29914668587435        1.46135341548350
C            3.97552216104577       -3.34470193180240        0.81754895116425
C            3.53278736328782       -3.79081653066851       -0.43869225529319
C            2.43176425662123       -3.20092927031117       -1.04765796522410
C            4.41594166431472       -4.85909313363411       -0.84865270563469
C            4.45121270441160       -5.66810228225925       -1.98336600573874
C            5.43222276114433       -6.62602778828167       -2.07873822018770
C            6.37577496327425       -6.79299804490680       -1.06282158826244
C            6.35284320271641       -6.00404372897060        0.06091395363376
C            5.36826593615458       -5.02495149280333        0.16986278702357
N            5.10672076801781       -4.09041339276596        1.19614356818681
C            5.84766619245678       -3.93993233320152        2.41845098634520
C            5.24339865143275       -4.18549302638956        3.62939183501095
C            5.94956555500755       -4.06479307080470        4.82463700879867
C            7.26191481550165       -3.69225364980029        4.82049206678576
C            7.92667155921652       -3.41378719094012        3.60642857812549
C            9.27868108625204       -3.00656266487194        3.56663148791409
C            9.88496327164818       -2.72540691544320        2.37927034090028
C            9.17601061881699       -2.83343523788040        1.17866204730715
C            7.87144319213250       -3.22726312506730        1.18346490678221
C            7.21491095283541       -3.53433886440068        2.39036967907885
H            0.36262878475259       -1.99268874740955       -2.03172125409481
H            1.73561934232135       -0.91813482934867        1.35100620894227
H            3.66953337728209       -1.95740276120722        2.41815858079165
H            2.10276708466948       -3.55134504096639       -2.00845263267181
H            3.71836675342013       -5.53645786882749       -2.75948577765375
H            5.47328230294564       -7.25987292227310       -2.94897029873784
H            7.13197268779023       -7.55403086763131       -1.16227688371689
H            7.07238913591674       -6.12653865609110        0.85042313625770
H            4.21113614060111       -4.48847683958965        3.63822593816208
H            5.45249485538158       -4.27068694315791        5.75825629066721
H            7.80422299906312       -3.60030839189032        5.74532808247937
H            9.82305227820015       -2.91626687006163        4.49051435358636
H           10.91589958282639       -2.41240456070165        2.36219082267043
H            9.66517128660922       -2.60053041644635        0.24728796631096
H            7.32044661335737       -3.30165506476474        0.26310121261766
