6
 energy: -0.908333386341 gnorm: 0.000312404115 xtb: 6.5.0 (97a52f5)
N            1.25325391132693       -0.03783003407983        0.03933024159599
C            2.41969949229689       -0.03783000095009        0.03933191312724
C            3.81406672673520       -0.03782998490009        0.03933388784933
Cl           4.37698540506811       -0.63771559444204       -1.50402677446739
Cl           4.37698298391347        1.59870300496519        0.29149917792101
Cl           4.37698148065941       -1.07447739059313        1.33053155397381
