47
 energy: -10.497525662660 gnorm: 0.000680225900 xtb: 6.5.0 (97a52f5)
N            1.64425764708613        1.17482595169005        2.64874704194264
C            2.66017799106334        1.16783864429147        2.05636001084363
C            3.85434645602654        1.10945527603128        1.40532369045782
C            4.56406378547247        2.13239972884414        0.86662483634720
C            5.79981168151640        2.01082467749244        0.18800485173169
C            6.39360034676638        3.16713744816548       -0.29774102136902
C            6.90853154960804        4.19824681162495       -0.72028691950293
C            7.48814601513867        5.38420031669702       -1.19374745036636
C            6.81013005564734        6.59641391090549       -1.09278928736472
C            7.38092009236025        7.76242246824336       -1.55471009411121
C            8.63759226642624        7.73877508497018       -2.12513593908768
C            9.32304501919044        6.54562287054824       -2.23355494991364
C            8.75475371271436        5.37796388769287       -1.77245255685064
C            6.45922343925324        0.77732595090027       -0.02757069611599
C            6.01570478887544       -0.43698167844542        0.38411360954100
C            6.59661550782128       -1.65503524417553        0.20196637324677
N            7.07022226066746       -2.72755913311966        0.10753267007911
P            4.48186946854212       -0.56043840672271        1.29202089944377
C            4.73613833599980       -1.28485358768941        2.93759876186857
C            3.90219787178839       -0.93827204901743        3.97679163601541
C            4.07468003763180       -1.50736728626699        5.22343720841703
C            5.07815665982064       -2.43280614004492        5.42382437912213
C            5.90277054317724       -2.79323548909088        4.37805352105434
C            5.72721316534415       -2.22033015286437        3.13374721422772
C            3.33109756318122       -1.58682398203085        0.35647486870119
C            2.59978635165799       -1.02702528003840       -0.66486780290547
C            1.73360961771558       -1.81521721502335       -1.39979792599680
C            1.61088308210226       -3.15908240345615       -1.10775004094529
C            2.35199564815272       -3.71660081836993       -0.08485823143424
C            3.21712712839497       -2.92600907255166        0.64808439483728
H            4.15207252963244        3.12482337628088        0.96126718277906
H            5.83047022591205        6.60993469145973       -0.64654331111817
H            6.84551187696920        8.69367299739762       -1.46987662283735
H            9.08325713901954        8.65135786613711       -2.48541325221904
H           10.30422261344607        6.52720020664144       -2.67854260326410
H            9.28616265732097        4.44524484236706       -1.85375969747201
H            7.39260620876234        0.80724066630545       -0.56734555382155
H            3.10543704848185       -0.23282207891589        3.81193809516713
H            3.42372756779443       -1.23095129492553        6.03649642637477
H            5.21459311659436       -2.87767628082107        6.39590573945354
H            6.68109039799239       -3.52288732629575        4.52989041477042
H            6.35671514676773       -2.51576936254710        2.31157335569473
H            2.71008814250591        0.02344299903007       -0.88190858574638
H            1.15712401860379       -1.38087217047028       -2.19986173578456
H            0.93751088244237       -3.77483128426864       -1.68111034610490
H            2.25966825799783       -4.76620646912750        0.14055451298418
H            3.80949408067609       -3.34781646732344        1.44373292921658
