37
 energy: -8.091290154487 gnorm: 0.000886881444 xtb: 6.5.0 (97a52f5)
N            2.59519650928089        0.49719650406807        1.05323816557885
C            3.45927737652212        0.92365789958052        0.37760712128526
C            4.50741870637878        1.34599453553642       -0.37941924430408
C            4.81448799130065        2.60523716074982       -0.77644930079329
C            5.91868147091799        2.97060341535115       -1.57691549441520
C            6.06258554003294        4.37049669904026       -1.88405359461890
O            5.30933992324141        5.23604901587609       -1.51232294892472
C            6.86536459519337        2.05032352537363       -2.08588297391454
C            6.84599173797672        0.71142502580745       -1.87385475088519
C            7.71065281482343       -0.23103950941784       -2.33683211586946
N            8.44586163517432       -1.08345828911663       -2.68062380443699
P            5.55259720536037       -0.01539100576371       -0.87624384559978
C            4.58681255979787       -1.15044887879169       -1.89221984557598
C            4.34910984240916       -2.43773350870163       -1.47175523777885
C            3.59879050492283       -3.28882146125783       -2.26045626994709
C            3.09154279463801       -2.84211736192789       -3.46385850814672
C            3.33147758457262       -1.54814664445444       -3.87992859946962
C            4.08232667110675       -0.69892134008132       -3.08869440975610
C            6.23181779413926       -0.89699647715255        0.56007033260580
C            7.45735471305734       -1.51764668644586        0.47115665490144
C            7.96392368603308       -2.20844963989998        1.55390500921061
C            7.23524412536561       -2.28608765911561        2.72228682574023
C            5.99883058029532       -1.68062409770636        2.80540042457382
C            5.49702753829748       -0.99007667488543        1.72027590139448
H            4.16485768261541        3.40752814382579       -0.46044744097336
H            6.89786942987832        4.68983262131961       -2.49203802260153
H            7.66526176897570        2.44306192566292       -2.69334374590725
H            4.74912270445896       -2.77048436563693       -0.52810398097031
H            3.40962179384842       -4.29832848509806       -1.93515897928356
H            2.50582419529639       -3.50481210902252       -4.07953158872721
H            2.93418784560913       -1.19902840743683       -4.81855831362118
H            4.27748808359127        0.31616170506915       -3.39682563618250
H            8.01519057401909       -1.47511656061056       -0.44884355334284
H            8.92635771496585       -2.68776738850911        1.48380869951647
H            7.62975754875713       -2.82366932294330        3.56890561477582
H            5.42395957692615       -1.74653814265475        3.71436448728426
H            4.52308718020933       -0.53393416063571        1.77766296918371
