42
 energy: -8.385809519395 gnorm: 0.000596590478 xtb: 6.5.0 (97a52f5)
C            0.96458748351209       -0.23731821748008        0.16909903646777
C            2.48707033321374       -0.07863279793207        0.09314490007257
C            3.08073345959884       -1.16898015045690       -0.80243277566024
C            2.84142144052852        1.30557397027416       -0.45609434004407
N            3.06194580435455       -0.21717867252896        1.44987780876704
C            4.41970196980516       -0.07997250765066        1.68281087629311
O            5.21387478500347        0.06926393587733        0.76610193935753
C            4.87508319869480       -0.10209913084284        3.09173830341471
C            4.23334581909576       -0.92984672069860        4.00811652741988
C            4.60673730671071       -0.96913943161700        5.32989775165844
C            5.64868432248949       -0.16850429668639        5.80240692419839
C            6.05204923891414       -0.17446778664231        7.17302644385771
C            7.05499772391231        0.61806437034964        7.61260976061953
C            7.75236173759667        1.49176393291453        6.72126705879500
C            8.78663853552624        2.32458440678963        7.15102133369143
C            9.43850956671581        3.15563323115165        6.26382766140952
C            9.08380389262525        3.18123701270437        4.93128955359007
C            8.05612764591525        2.36822123155550        4.45048518993573
C            7.66259537337816        2.36369843283893        3.07697116010776
C            6.65935580581812        1.57020219783284        2.64186843936316
C            5.94507725412353        0.70746085685009        3.52598846125759
C            6.32229756958689        0.67898966865305        4.89111537571299
C            7.38072583516457        1.51398639390463        5.35496213546130
H            0.51333636298106       -0.15548860897409       -0.81912054362041
H            0.52728102478981        0.53098584619357        0.80549860644216
H            0.69963667046357       -1.20883636702287        0.58420747060176
H            2.70331381410331       -1.09398815858605       -1.82162206133671
H            2.83599021805971       -2.15705197293755       -0.41538470687549
H            4.16631300676833       -1.08117562277537       -0.82742297560626
H            2.44682547100523        1.44457245781835       -1.46195894610446
H            3.92314992450906        1.42908718239812       -0.49032089301407
H            2.43634432345437        2.08775503817593        0.18437611055378
H            2.39093450026312       -0.14348181868921        2.21590064866507
H            3.43298148743285       -1.55976881982710        3.66061428296572
H            4.09413773045083       -1.61851273273111        6.01837283323541
H            5.53690601331319       -0.82663386870889        7.85690677604734
H            7.34493288970467        0.60261976468320        8.64887606284215
H            9.07093962709822        2.31120742398112        8.18903529388460
H           10.23406626306907        3.79172371729459        6.61600171712044
H            9.59905664971261        3.83217311107157        4.24625969628284
H            8.18794993188060        3.00242329110584        2.38841981267744
H            6.38991798865534        1.55718020836942        1.60104128949278
