45
 energy: -9.825821033297 gnorm: 0.000573372480 xtb: 6.5.0 (97a52f5)
N            2.77453242615381        1.23622351928028        3.39893784182764
C            3.53028723809265        1.23322777354853        2.49738711281609
C            4.44114049717236        1.16741572157776        1.48775354417104
C            4.86976514275571        2.17232530589547        0.68523926864460
C            5.81485288632159        2.06016186155468       -0.36983978974287
C            6.16007864207517        3.25505221836466       -1.14399394925476
C            6.61452898463294        3.15949256915292       -2.46734173283908
C            6.93648257193406        4.28294104593400       -3.19221977138288
C            6.81837445390621        5.53541918143831       -2.62370042428420
C            6.37374587653990        5.65855595421082       -1.32250704739958
C            6.04825592242043        4.53952187840383       -0.59229895924758
C            6.43357763451235        0.82445988850916       -0.70023362461779
C            6.22024662213860       -0.36856988172809       -0.09300195382308
C            6.79455989692656       -1.56626626369161       -0.39006501040328
N            7.27752324330634       -2.61922937794846       -0.59434817755060
P            5.06498267357489       -0.48959157368421        1.26339068142955
C            5.86486182056646       -1.12124437386031        2.76672095413799
C            6.84541312401253       -2.08264595342380        2.66765590536387
C            7.43400245933860       -2.59278780178969        3.80827503373962
C            7.03322524249038       -2.14245885547937        5.04934706340535
C            6.04096805265500       -1.18906738114153        5.14951968082243
C            5.45401635545635       -0.68375065787359        4.00605061864284
C            3.69457502713189       -1.58249674614554        0.83078450708437
C            2.84723897655607       -2.01660794378757        1.82345074926802
C            1.78612890453394       -2.84451819702250        1.50750182479262
C            1.57923395211215       -3.22733447377973        0.19736896600062
C            2.42877878817080       -2.78363629108041       -0.79628737370298
C            3.48957701784883       -1.95692590300347       -0.47680737322742
H            4.42214142289922        3.13794906264244        0.85177855050489
H            6.67715607500068        2.19408617487527       -2.93720956641947
H            7.27753902763382        4.18652844100273       -4.20990085733666
H            7.07207812074645        6.41391512782221       -3.19387340462299
H            6.28598545552991        6.63584744874213       -0.87684128611440
H            5.73720279731366        4.65101626723560        0.43113344480519
H            7.16521986460854        0.83079159525175       -1.49101123593301
H            7.14656851564672       -2.44298126161127        1.69851316827958
H            8.20212202225889       -3.34427339487061        3.72775577668504
H            7.49068264939499       -2.53975256023957        5.94053795215099
H            5.71963830445915       -0.84233191310474        6.11793175276432
H            4.66101031644664        0.04026722071255        4.08426108489020
H            3.01409074023333       -1.69806405118172        2.83996595118716
H            1.12081839835760       -3.18661308851235        2.28289664822043
H            0.75185908290555       -3.87171639219224       -0.05068199770716
H            2.26665102546014       -3.08079984963665       -1.81925027707929
H            4.16157174778024       -1.60421406938056       -1.24211426889870
