35
 energy: -7.643832170384 gnorm: 0.000624311196 xtb: 6.5.0 (97a52f5)
N            1.38961933055995        1.11606431303901        0.88634848133938
C            2.49264029441101        1.01128059672762        0.48222704624432
C            3.77013861594057        0.83788153874917        0.06678730599796
C            4.61433387015003        1.75838610217021       -0.48143594039695
C            5.92201593242674        1.49491649950936       -0.89683733136921
C            6.56497619766167        0.25666015712682       -0.82310683867328
C            6.00525839588427       -0.88342720614842       -0.32568932193891
C            6.55452112147210       -2.11806446654975       -0.22982498180709
N            6.99472037302040       -3.20366398075396       -0.09263841832189
P            4.33037559243876       -0.84516222745089        0.29784047180339
C            4.25086682124827       -1.34175301848264        2.04261470207154
C            5.14928941147428       -2.25953737735239        2.53872029081201
C            5.06790289018054       -2.66571842055223        3.85616274099474
C            4.07805898603414       -2.15821520518658        4.67227197293560
C            3.16749441128896       -1.25143130459017        4.17060220772123
C            3.25302105236423       -0.84830407517952        2.85253973255753
C            3.31291740005744       -1.95982093774421       -0.68870864232026
C            2.89945618316812       -3.16371578095656       -0.16812386471768
C            2.13204683734113       -4.01670967231072       -0.93844009822590
C            1.78746966552598       -3.65740510510204       -2.22599743439974
C            2.20953874906219       -2.44989744251434       -2.74520427920012
C            2.97732458350553       -1.59863473428990       -1.97236646236700
H            4.23253722607459        2.76136601385215       -0.59999890096094
H            6.48188831643095        2.31686574509779       -1.31330113960258
H            7.57926143573585        0.18451749986370       -1.18610492488590
H            5.90504479581915       -2.67453151322849        1.89363188719096
H            5.77406640142202       -3.38196422365801        4.24268066697135
H            4.01215354880114       -2.47474922702615        5.70029394176029
H            2.38792093485553       -0.86084713931586        4.80375956534963
H            2.52923809568369       -0.15853138480260        2.45256345644802
H            3.18094005344043       -3.43234240574546        0.83688694133693
H            1.80475244588780       -4.96038250241456       -0.53434687462247
H            1.18846591948479       -4.32135249483252       -2.82734109887732
H            1.94185287880247       -2.17047311185458       -3.75076068959555
H            3.31662123234538       -0.65235350808252       -2.36273416923953
