49
 energy: -11.092838174016 gnorm: 0.000524808206 xtb: 6.5.0 (97a52f5)
N            3.12399525923786        2.37595865140414       -0.59565366826016
C            3.22892618466028        1.30499583953925       -0.16957590142598
C            3.40314008745287       -0.01370692445944        0.35220164121419
N            4.55034951547759       -0.09258489065877        1.16664357905710
C            5.66096687618918       -0.26201058137820        0.50215132495379
C            6.90566186063657       -0.14527295236508        1.17567163048208
C            8.10953716567965       -0.14761961315333        0.51567227426067
C            8.13583215887421       -0.27438766584865       -0.91420749583202
C            9.36720448349832       -0.22685616729548       -1.58721587185756
C            9.36731170387199       -0.29748482285790       -2.98486994344130
C            8.19418446021211       -0.44240134022422       -3.68936726501473
C            6.98864652308752       -0.51765887793331       -3.02426183650918
C            6.93792227243240       -0.42933962154874       -1.64020726547809
C            5.66951146813214       -0.52038895613912       -0.93561935411226
N            4.60806485119922       -0.88984246248283       -1.58031497340341
C            3.47648564366113       -1.09990422531683       -0.76693881434782
C            2.27320655799586       -1.21988874221664       -1.52781990498341
N            1.29489440044536       -1.32669799782397       -2.13712657269254
C           10.57721654335023       -0.08579577737536       -0.81844915116434
C           11.88469459555764        0.00938342758237       -1.50823767507344
C           12.69109045355313        1.14114560022565       -1.36223265107040
C           13.90800014897690        1.22555038044134       -1.99715706957130
C           14.34864934058342        0.18638831916779       -2.79160089236147
C           13.56757861558195       -0.94071609563864       -2.94903975062221
C           12.34998124588346       -1.03145722048761       -2.31623968886219
C           10.48069123122036       -0.00431264786072        0.57053884628596
C           11.66939865667574        0.09225577365429        1.43996703744351
C           12.82924743527254       -0.64598591618457        1.20997417979209
C           13.90328483888967       -0.55230957216068        2.06480810501254
C           13.83744591549456        0.26921795315488        3.17176666839218
C           12.68939828779841        0.99176051219546        3.42569716403410
C           11.61403120327023        0.89959585931138        2.57171616633792
O            9.27974619837386       -0.00761553355810        1.23831321665291
H            2.53062575920281       -0.22797359889216        0.99421490485198
H            6.90202074039765       -0.00529437847874        2.23978159262242
H           10.30074955632598       -0.22823948383848       -3.51361214138065
H            8.21590062244904       -0.49756220731089       -4.76521046385807
H            6.06667401991470       -0.63598303399721       -3.56716489474866
H            3.64127749413389       -2.07386540538208       -0.27232881889406
H           12.34351205445295        1.94981570385968       -0.74289466058492
H           14.51857816162992        2.10488075038635       -1.87500630750095
H           15.30217710174231        0.25501451032212       -3.28870445194350
H           13.91343081715866       -1.75189588815838       -3.56820709469510
H           11.74546398313886       -1.91524143888846       -2.42586403185280
H           12.87485189617909       -1.30004949109218        0.35739430370647
H           14.79543756030407       -1.12499035022116        1.87181294333820
H           14.67848679113795        0.33939700902587        3.84159114104669
H           12.63242497021709        1.62456101601126        4.29600800892164
H           10.70690228839488        1.44424257491808        2.77088388311838
