16
 energy: -3.343828031880 gnorm: 0.000555296396 xtb: 6.5.0 (97a52f5)
N            1.12439564245517       -0.15323484444892        0.04018409372768
C            2.27964202599077       -0.11527714423013       -0.00623836823265
C            3.68762973336411       -0.01978927896011       -0.06051557382452
C            4.20874983566160        1.32760034225102       -0.48067380880091
C            5.42804024134243        1.44104857176456       -1.13076001305879
C            5.92289350363930        2.67768233152529       -1.48889372371529
C            5.20834372496787        3.81941093812713       -1.19499470410783
C            3.99847715832042        3.72227835098626       -0.54179399358032
C            3.50483201955532        2.48506845911915       -0.18640550312777
H            4.06815733817122       -0.78541628075321       -0.74597222861947
H            4.10127545507058       -0.26632609454609        0.92409098088364
H            5.98844396122360        0.54972105865710       -1.35467525058506
H            6.86972663512019        2.75112987862843       -1.99814551698212
H            5.59528807266073        4.78547246519329       -1.47458709690762
H            3.43742466928414        4.61264118105786       -0.31011967635891
H            2.55642998317258        2.40373006562838        0.31595038328990
