18
 energy: -3.023360744990 gnorm: 0.000575052678 xtb: 6.5.0 (97a52f5)
N            1.35372928280773       -0.03102839546083       -0.61542668135845
C            2.45856736076611       -0.04065228243759       -0.26024458890275
N            3.76807110397494       -0.05686237467650        0.13786568245658
C            4.52902438482622       -1.31784123324629        0.08510982243660
C            5.39021739052150       -1.38107312203062       -1.18097308037988
C            6.27233227055440       -0.12633327021986       -1.30779603217327
C            5.42796570812787        1.15786624789364       -1.23295711006929
C            4.57391783165720        1.17269934371472        0.03889475617222
H            3.81923203909057       -2.15110239424456        0.13260833289201
H            5.15031399628652       -1.38277242831577        0.98352644388825
H            4.73535151982818       -1.45589325735004       -2.05726827393375
H            6.00315376346721       -2.29258047361680       -1.18874631148615
H            6.85603613068615       -0.15392383736030       -2.23816692311284
H            7.01263343466935       -0.12066218496862       -0.49871257061124
H            4.76873703545656        1.21080989449171       -2.10762008150335
H            6.06520020173839        2.05101545890897       -1.28538088304751
H            3.89668642480098        2.03360663584028        0.06212195906805
H            5.20382012073979        1.24381767307766        0.93084553966475
