96
 energy: -21.491155028920 gnorm: 0.000435073954 xtb: 6.5.0 (97a52f5)
N           -2.88861359979376       -0.47650979195844        0.27629681787887
C           -1.74185013736850       -0.40307100630214        0.09919488545888
C           -0.36421791187783       -0.31523196942825       -0.10632433231951
C            0.29155576927891        0.92384705724406       -0.01811091339365
N           -0.40808785216184        2.13502842064895        0.30885161392963
C           -1.17624870935244        2.37949566437991        1.46651413495606
C           -1.56869332349345        1.53129912374652        2.50102852848443
C           -2.30303477278434        2.04784590831910        3.53913404648737
C           -2.65372064644780        3.40050836182322        3.56941262557835
C           -2.27198042346570        4.25223582684395        2.56137066915703
C           -1.52457777907321        3.74035026260833        1.49913410047551
C           -0.95199276457682        4.35874727911462        0.32819513191426
C           -0.96368060069695        5.67221370659793       -0.14487602046174
C           -0.29625774981236        5.95824473165920       -1.31128458449582
C            0.38265288239648        4.95950207734737       -2.01556255866896
C            0.40282923822967        3.66357352306052       -1.56258620312590
C           -0.26808731748536        3.35678855274175       -0.37962673595736
C            1.66130116627184        0.98960143792271       -0.19935416067094
C            2.42362190334716       -0.14170727008304       -0.45270617883520
N            3.85545115768504       -0.08529889141688       -0.43245962415257
C            4.58295067665574       -1.30207578761623       -0.19274369399831
C            4.65586492842626       -2.31500608546676       -1.14396002452874
C            5.30918746307248       -3.49088545054822       -0.85821178589272
C            5.90260015053697       -3.66781377006693        0.37578937602433
C            5.84881362063816       -2.66294151861421        1.32140196861610
C            5.20176090456276       -1.47069629518077        1.05219952979236
C            5.06618447667566       -0.34190367352265        2.08809610512302
C            3.70032593062995       -0.49658653829958        2.77715105403336
C            3.29891618053113       -1.73051244409107        3.26523686025132
C            2.06496714384331       -1.89160690030753        3.86075509403970
C            1.20673833313255       -0.81888887364931        3.97325479859618
C            1.59384511763956        0.41757668890638        3.50392019772111
C            2.83218807323240        0.57639058950288        2.91960577923711
C            6.21455106632357       -0.40316225926007        3.10301693442916
C            7.52611079864187       -0.39023903157770        2.65361182840324
C            8.58057406097992       -0.41519118540556        3.54228587068375
C            8.33792778588090       -0.44840686609117        4.89904677232724
C            7.03946372025941       -0.45295778810468        5.36268365561621
C            5.98750172358638       -0.42733513868252        4.47090801722689
C            5.11222245588867        1.00372502259092        1.34477235433061
C            5.66701069737444        2.14311129967751        1.89795328969893
C            5.62129396636468        3.34909072631172        1.22696026779485
C            5.01659278670136        3.43068022777550       -0.01173899233239
C            4.45470335652379        2.31004907347936       -0.57741414415584
C            4.48726683733484        1.09223159040980        0.09484376993361
C            1.76354821221412       -1.35846281581851       -0.54157858944882
C            0.39536948173669       -1.46692806988867       -0.37088156333814
N           -0.18575382186674       -2.78050922754689       -0.38033968840720
C           -1.27683266603855       -3.24223103462543       -1.14495843533410
C           -2.09980521685817       -2.58503389822948       -2.05835044585230
C           -3.10284446283971       -3.29198474695459       -2.67377300263946
C           -3.29834502313759       -4.64919966714281       -2.40279667189628
C           -2.48993898947165       -5.31610024480791       -1.51465746633021
C           -1.46682037750108       -4.60952218158464       -0.87993663262097
C           -0.45672999058825       -5.00883787740011        0.06985368265216
C           -0.16174589946840       -6.23087399909958        0.67755686924512
C            0.89558745178567       -6.29408296069393        1.55308394256513
C            1.66368461305265       -5.16117045656989        1.83689123561881
C            1.38301962979663       -3.95329550893605        1.24896651272710
C            0.31670420980817       -3.87245037256115        0.35532865297738
H           -1.30850336937210        0.48875324918155        2.46160623117004
H           -2.62041572950040        1.39952475589700        4.33924704659351
H           -3.23368336825040        3.77915355965799        4.39494189785593
H           -2.53466446573728        5.29523041540953        2.57830762964261
H           -1.48813064857274        6.43498965225595        0.40303928255068
H           -0.29628688549199        6.96688711047797       -1.69065064410007
H            0.89553288878140        5.21108331766568       -2.92933916050198
H            0.91495801231340        2.88721540275253       -2.10238816774719
H            2.14337283645374        1.93903511081670       -0.07279643910269
H            4.19717923667670       -2.16088477855719       -2.10519436846324
H            5.35687475109502       -4.27401017847377       -1.59703138573880
H            6.41046712872102       -4.59124707921219        0.60096873271762
H            6.31003146104354       -2.80520699149699        2.28312120195941
H            3.96262457594398       -2.57170231282285        3.16836563399179
H            1.76700452750874       -2.85970320778729        4.22902428497841
H            0.23639572613769       -0.94697435587742        4.42443393294255
H            0.92496108151467        1.25854168352878        3.58226343493557
H            3.12436831514029        1.54274527852080        2.54911412816584
H            7.71248309647287       -0.35638978020612        1.59376874348776
H            9.59409712050209       -0.40550374030767        3.17591478795554
H            9.16067395318197       -0.46738865831010        5.59504414855926
H            6.84609084476582       -0.47452288228781        6.42275614916691
H            4.97637232007598       -0.42171733395012        4.83741722404175
H            6.12601094577768        2.08465489283548        2.86931176682787
H            6.05601078415711        4.22874947947700        1.67261181782827
H            4.98272189321871        4.37275497380779       -0.53400083746478
H            3.98419248985936        2.35953632611249       -1.54394527692650
H            2.32621781686085       -2.25769628658886       -0.69668397885026
H           -1.95077657997523       -1.53779311671454       -2.25174526112616
H           -3.75397749279741       -2.79153267104300       -3.37150404762166
H           -4.09597888344326       -5.17859276688672       -2.89754745250926
H           -2.63147528012325       -6.36105912882458       -1.30218361503837
H           -0.75858389266865       -7.09768769737445        0.45512339056301
H            1.13652833765600       -7.23008676826750        2.02958614909362
H            2.48672099625294       -5.23693005581217        2.52840569425517
H            1.95867752106292       -3.07397097285100        1.47191280054482
