74
 energy: -15.150557059956 gnorm: 0.000592635960 xtb: 6.5.0 (97a52f5)
N           -3.23754750773708       -0.34686046238612        0.40807379879182
C           -2.07847319171615       -0.27115405085686        0.34070184141416
C           -0.69282292677253       -0.17052659508680        0.24127414133748
C           -0.04244739934230        1.06838137834373        0.04468993467795
C           -0.72724461180567        2.34453003464876       -0.11408229515154
C           -2.04976694687096        2.57817435448894       -0.05427332717579
C           -2.68433150379859        3.87107968529950       -0.20313291698494
C           -4.06996699050030        3.97424840463134       -0.04376606410403
C           -4.70971124180368        5.18172193480950       -0.16601896915939
C           -3.99463484701037        6.34320200757367       -0.45612046485220
N           -4.65787166506108        7.60486543538098       -0.56716708958777
C           -5.82065678285149        7.88332247932546        0.22841359639645
C           -6.88989965497630        8.59948550201719       -0.30315089978197
C           -8.00352291708693        8.86827577372067        0.46022980654277
C           -8.06913062781530        8.42906181453175        1.76816681562003
C           -7.01515474274576        7.72018778832240        2.31078289899017
C           -5.90071954016373        7.44971545949320        1.54929078072105
C           -4.16217302789115        8.60923356507722       -1.46606533423198
C           -4.17614069450038        9.95393212880030       -1.10495784555961
C           -3.71072185521508       10.91832577486399       -1.97012114895915
C           -3.22438364073123       10.55805006560504       -3.21170799430113
C           -3.20523573499068        9.22835436928199       -3.58510681055931
C           -3.66943625388889        8.26203936663594       -2.72134429739829
C           -2.61385123573326        6.24391665950162       -0.62483221780926
C           -1.97140385598187        5.03729384580744       -0.50095085076094
C            1.35129991992690        1.08752778847166        0.00643791197650
C            2.11621288214580       -0.06160031494645        0.16273870307348
C            3.59496942395416       -0.00405744329148        0.12325717055452
C            4.28694993227346        1.03958011808883        0.73581830220462
C            5.66333354465396        1.09025303910994        0.70013726472480
C            6.37617369357658        0.10111043450705        0.05292196416277
C            5.70812238729276       -0.94047436748288       -0.55883722701057
C            4.33179179814440       -0.99423060454289       -0.52482846927321
C            1.45969294105924       -1.26826195768542        0.35329184999706
C            0.07078821285991       -1.35174776200550        0.38577453563494
N           -0.55282891746974       -2.61751877147143        0.56963729158744
C            0.07371193240648       -3.68293866158202        1.37934381735972
C            0.58875787637485       -4.81923757312102        0.49092017449984
C           -0.54157709767499       -5.35884006782014       -0.40141165375577
C           -1.19188906120612       -4.22539920170231       -1.21338605572661
C           -1.65736315536573       -3.08760522209502       -0.29789741676488
H           -0.08216444923671        3.18703771671985       -0.28427723657790
H           -2.71714373007372        1.75837218748641        0.12762555038289
H           -4.63577269749828        3.08599587626128        0.18037644124394
H           -5.77739698297945        5.24567660705749       -0.04934717591637
H           -6.83468453458355        8.93230379996589       -1.32487747853250
H           -8.82590368842203        9.42093011888760        0.03617002418851
H           -8.94166902363397        8.63924981536158        2.36483346503029
H           -7.06482190607109        7.37863004764622        3.33179435714592
H           -5.07245863664378        6.90552994412412        1.96846172385062
H           -4.55036996970724       10.22649812636357       -0.13366225587288
H           -3.72542587484014       11.95563728778564       -1.67797741906473
H           -2.86135772085721       11.31383999241654       -3.88889949446503
H           -2.82841935601613        8.94691330606527       -4.55484541843345
H           -3.66821192024375        7.22558135950051       -3.01039931138550
H           -2.05414384452926        7.13715008172006       -0.84059020241102
H           -0.90640031522284        4.99140152755287       -0.64034010591868
H            1.85475657167532        2.02357287595036       -0.15527619839614
H            3.73229407828920        1.80362080101473        1.25270584577484
H            6.18471893024742        1.90265475298895        1.17958208298727
H            7.45280013854001        0.14244912216667        0.02472484319920
H            6.26415767839988       -1.71181594780822       -1.06634952255426
H            3.81107417078967       -1.79844675943563       -1.01547166036928
H            2.04101967690307       -2.16415004597721        0.46226634912965
H           -0.68091138779408       -4.05772696424195        2.07802915396503
H            0.86768217135591       -3.25018782722061        1.99682528888348
H            1.02774212088469       -5.62208145833562        1.09938067454621
H            1.40363014663715       -4.44598809419460       -0.14084534316546
H           -1.30273437495155       -5.83833947398388        0.22647783722681
H           -0.16822373943243       -6.15002494665309       -1.06666536763016
H           -2.02897617864686       -4.60602617142709       -1.81482467646931
H           -0.46444673664345       -3.83135887575411       -1.93351719886239
H           -2.48159861743804       -3.41174069703198        0.34460925629559
H           -2.03520691421930       -2.24441423721354       -0.88452007919969
