71
 energy: -14.437249353987 gnorm: 0.000667663065 xtb: 6.5.0 (97a52f5)
N           -3.24043362502221       -0.34486863453313        0.38768382344883
C           -2.08230880990938       -0.27254559286776        0.30267856750652
C           -0.69837271558035       -0.17570988381319        0.18135685898975
C           -0.04861200377470        1.06166647437581       -0.02624383315021
C           -0.72949513708663        2.34067881910611       -0.17097896823662
C           -2.05033425614295        2.57818154315667       -0.09119828379901
C           -2.68228471743706        3.87362223756646       -0.22587471223631
C           -4.06367561487540        3.98248124595656       -0.03686779665610
C           -4.70050035265091        5.19273874920601       -0.14576756713301
C           -3.98690002086160        6.35104271826952       -0.45145881605916
N           -4.64721094116279        7.61495018889236       -0.55201160100317
C           -5.80183515184137        7.89530224510514        0.25466845775173
C           -6.87735748752753        8.60748287303357       -0.26940733171500
C           -7.98381424967574        8.87771492130030        0.50365975877093
C           -8.03579958802835        8.44407883272532        1.81399487620484
C           -6.97531664309234        7.73943058825358        2.34928303732717
C           -5.86790716723064        7.46753087753437        1.57816235539387
C           -4.16354932934056        8.61649480513367       -1.46060235951958
C           -4.16952351462625        9.96185343225002       -1.10185150762253
C           -3.72013306588697       10.92418934551262       -1.97758812767686
C           -3.25783335945572       10.56125031886173       -3.22747381359122
C           -3.24635641574286        9.23081685961501       -3.59837625752598
C           -3.69476991610021        8.26654893857009       -2.72419912495808
C           -2.61037654031099        6.24608635693937       -0.64844067018895
C           -1.97060454104469        5.03679382069060       -0.53796727741599
C            1.34315230373834        1.07496620800382       -0.08809353337843
C            2.11138068125125       -0.07345236103320        0.05461543991241
C            3.56698538542389        0.00904272805977       -0.01226039072827
C            4.45689626231073       -1.01277543785026        0.15464304325285
C            5.81654428717943       -0.61408773623380        0.03328235929403
C            5.97091353988870        0.70351120428100       -0.22472223126942
S            4.43752517667883        1.49135981141998       -0.32735871788224
C            1.45482238869657       -1.27978507927719        0.25641530322782
C            0.06633561256955       -1.35800277022790        0.31386669524723
N           -0.55670888618506       -2.62153725105979        0.51447773915977
C            0.07601332901283       -3.68050098741562        1.32731892033731
C            0.56041519643094       -4.83510018613488        0.44580829099917
C           -0.59505022654043       -5.37713116076218       -0.41204739199464
C           -1.25028364004141       -4.25058956238582       -1.22952259390974
C           -1.68282119305897       -3.09135104418268       -0.32492514894955
H           -0.08383255084543        3.18139908866083       -0.34751433822678
H           -2.71752136505010        1.75983295368554        0.09818957467323
H           -4.62809814619949        3.09664561702399        0.19968941347410
H           -5.76514183457061        5.26130850557369       -0.00657014489987
H           -6.83265891100503        8.93576825319285       -1.29309033228018
H           -8.81122952721060        9.42714491023018        0.08531590321899
H           -8.90276614514087        8.65554786983314        2.41822712844551
H           -7.01438906192438        7.40270448635160        3.37232032202626
H           -5.03404489605633        6.92772564854841        1.99174938766971
H           -4.52536015649831       10.23630632661508       -0.12421671491609
H           -3.72892547501240       11.96210028813042       -1.68745715016260
H           -2.90756829687400       11.31544143137621       -3.91301354848698
H           -2.88809680360768        8.94715477194287       -4.57443425842847
H           -3.70064644793913        7.22966507923883       -3.01154978899168
H           -2.05111630021397        7.13686798615117       -0.87503380266036
H           -0.90885385655778        4.98663378223551       -0.69866382359268
H            1.84934093937310        2.00970655781712       -0.24559108033989
H            4.16240591013936       -2.02946957343064        0.36182478064951
H            6.64444323642293       -1.30042751969686        0.13861021490155
H            6.90902997620368        1.21035673111183       -0.35024762052203
H            2.02832310707598       -2.18243593344798        0.34048158048181
H           -0.66744525138974       -4.03649748063909        2.04736298071278
H            0.88732064109918       -3.24648572662170        1.92092208773462
H            1.00631340329061       -5.63242081600455        1.05632751859163
H            1.36367510460757       -4.47895035121353       -0.21012454778079
H           -1.34754674596508       -5.83657590705988        0.24062145160907
H           -0.24538093469055       -6.18429488884695       -1.07081573789468
H           -2.10456746757093       -4.63221809203210       -1.80560037809978
H           -0.53471477163496       -3.87800417372751       -1.97255392155963
H           -2.49960562984257       -3.39276425010149        0.33776805048850
H           -2.05952679536032       -2.25278403092167       -0.91885067605534
