26
 energy: -4.375633307685 gnorm: 0.003597222093 xtb: 6.5.0 (97a52f5)
N            4.54609876146086       -1.33180161345244       -0.09212715382441
C            5.21951350871162       -0.38591221402351       -0.15079890879984
C            5.97127152235244        0.74434996413248       -0.20518782428481
C            5.59845592961526        2.02021936049775       -0.08034899481177
C            4.25033662244643        2.32379480866376        0.12940396594783
N            3.12287717504207        2.54950533929642        0.29890760613589
C            6.55534776745877        3.03624819335834       -0.13972194080326
C            6.35647048268380        4.34124250548478        0.03569709767380
C            7.28087501263553        5.31760521027123        0.01843354573519
Cl           6.71981970246720        6.96587173195268        0.28161692813264
C            8.59710359581119        5.05122520180609       -0.18975153586345
Cl           9.77997315246907        6.14004980773780       -0.22654674976919
C            7.75360809580912       -3.31785858811703       -1.14535847804811
C            6.61253205241391       -3.51482898907009       -1.77426082542968
C            5.58748511620288       -4.26518348902217       -1.36263898821466
C            5.51774106265761       -4.96960859017417       -0.22398362807798
C            4.42521554432457       -5.74614070611806        0.18075152766627
Cl           4.59365625838113       -6.56664779059163        1.73068113165088
C            3.31240884313947       -5.87225764726813       -0.55050450219579
Cl           1.99729398273273       -6.76089220060638       -0.14808690710411
C            2.70744116242362       -2.77739755494618       -0.83859852208662
C            4.47814347247829       -2.76745309482437        1.93340441059016
H            1.74662982566091        4.12765568344551        0.45815590450627
H           12.97890749222775        2.53531171355813        0.52373016967376
H            6.36326896043454       -4.93356938779325        0.44370514570142
H            2.59329490297928        0.31412234866560        0.08086752729224
