26
 energy: -6.040585950745 gnorm: 0.000448743214 xtb: 6.5.0 (97a52f5)
N            1.20997957317940       -0.22172460150058        0.05273893223104
C            2.36679077299585       -0.10826429600560        0.05404142347763
C            3.76317086689687       -0.05402622785196        0.05630091874039
C            4.43560890864215        1.14356669661722        0.05743214723806
C            3.75501414620679        2.36406098792207        0.05661758386784
N            3.24969432573408        3.41082302043334        0.05599539646625
C            5.87475251269386        1.16736605296780        0.05941082408281
C            6.56157546922579        2.39176752957666        0.06033094944342
C            7.92723331803455        2.44722307755842        0.06211885309252
Cl           8.74032323942969        3.99791231999178        0.06322576492259
C            8.65237850000332        1.26064289227804        0.06303276919395
C            8.01353795151365        0.04935785741272        0.06218148704581
C            6.61290360354190       -0.03487511099373        0.06034587778379
C            5.90280370397675       -1.29953368302524        0.05932796422078
C            6.56003400872171       -2.53926126434793        0.06019002821959
C            5.85840174994510       -3.71528958014587        0.05911342792688
C            4.46778895170759       -3.71386558711020        0.05719165126592
Cl           3.56708566582255       -5.21536522251420        0.05604563435477
C            3.80419551025107       -2.51898377326026        0.05630378653908
C            4.49205191616185       -1.29516334178410        0.05732407905874
H            6.00420009537732        3.31207256540841        0.05961212380146
H            9.72802793938896        1.31486432239403        0.06440927555720
H            8.60286851416591       -0.84900428219848        0.06290065289867
H            7.63386033831367       -2.57476690305021        0.06176239871681
H            6.37207862852598       -4.66191428970828        0.05977545462511
H            2.72826978954364       -2.52218915906388        0.05481059522893
