26
 energy: -5.983177779239 gnorm: 0.000589591748 xtb: 6.5.0 (97a52f5)
N            1.23201237009801       -0.09448556147483        0.02462222757614
C            2.38723884765754        0.03288090657421        0.02709280111773
C            3.78336688472180        0.09291464919552        0.02904003107712
C            4.45587268860137        1.29066862914507        0.02997465215580
C            3.78032656165839        2.51395005050561        0.02901222725502
N            3.28771072448908        3.56663588532324        0.02865819268314
C            5.89542441884408        1.31431967359058        0.03183736181308
C            6.57866553034513        2.53823611729918        0.03260250944010
C            7.96179593945997        2.63606886125961        0.03432441708954
F            8.64276364295699        3.91945713007249        0.03519106436537
C            8.66651583200991        1.41194133457458        0.03524344439072
C            8.02792884650945        0.20212918332433        0.03452639173463
C            6.63037469454181        0.11373669130301        0.03281548061759
C            5.92031769776788       -1.15089976267285        0.03192602616348
C            6.57245680295821       -2.39012728791154        0.03274347255981
C            5.87200654313626       -3.56520400891802        0.03169523908505
C            4.45996967450557       -3.60084082828326        0.02987735748358
F            3.71878003641773       -4.85041655371124        0.02876198088278
C            3.82339853090060       -2.36901197610426        0.02920958425273
C            4.51264260902926       -1.14846637127608        0.03009873430543
H            6.00497962516086        3.44720376059525        0.03181057701497
H            9.74221852053803        1.44918862685991        0.03652453165552
H            8.61660470784133       -0.69671631097822        0.03526868696017
H            7.64635669851190       -2.42476208051136        0.03421028904282
H            6.40025133242763       -4.50301118770763        0.03222550380791
H            2.74866023891119       -2.35243957007329        0.02783721546976
