62
 energy: -12.480025728635 gnorm: 0.000469548754 xtb: 6.5.0 (97a52f5)
N            1.31256910639779        0.01528685178278        0.11107723248514
C            2.47322132839296        0.06770980037877        0.14899768267014
C            3.87018089922002        0.11715434972286        0.19111643592961
C            4.54866058553993        1.35813665320754        0.17210721619374
N            3.86226294397276        2.59789053728433        0.19478235213622
C            2.62449380025947        2.83452865972909        0.96805461669576
C            1.46765577882143        3.22177556175555        0.04246253920390
C            1.85196818986005        4.43306786777042       -0.82328526331372
C            3.16077624611124        4.17169062917165       -1.58899304296521
C            4.28451865752357        3.74884639515817       -0.63503434707590
C            5.93798786006078        1.34451255811776        0.09746138521444
C            6.67522691808438        0.17219730256556        0.08736818531636
C            8.14356645296773        0.27709588969931       -0.09364865997615
C            8.92497446633776        0.99390181293089        0.81220457732160
C           10.28658042894835        1.08439382669928        0.64864497465264
C           10.92212145755403        0.47025975912134       -0.43073732731446
C           12.38938884451516        0.56150636904268       -0.60096020372754
C           12.95473063477391        0.73567402286759       -1.86375788810100
C           14.32104914680018        0.82000083135938       -2.01996333128409
C           15.15091206293480        0.73127029081620       -0.92056146150222
C           14.61008215625497        0.55805415650295        0.33748411816601
C           13.24418313630299        0.47420751523768        0.49741358689821
C           10.13727644884248       -0.23350601790083       -1.34420932571408
C            8.77587036641751       -0.32585414029352       -1.18118945028573
C            5.99904593090648       -1.07090846402638        0.19419263189699
C            4.59344552947111       -1.07604701180254        0.19684118545884
C            3.86263033219556       -2.39271642424625        0.17858334312352
C            4.64511210446441       -3.47387232808103       -0.58670510575070
C            6.06746544203097       -3.54274500361978       -0.11475092495385
C            6.72803816523490       -4.75658824052452       -0.02938612352162
C            8.01031029954548       -4.83004578510801        0.47374220148083
C            8.63856742320626       -3.68517589353114        0.91488572607663
C            7.99492424459330       -2.47177811235107        0.83401421136073
C            6.71255600224594       -2.36354955391257        0.29317447817344
H            2.82430128117150        3.63574024388352        1.68604953593464
H            2.39253961014470        1.94539482503928        1.56296836865027
H            0.55476427005380        3.42112071523977        0.62017440138534
H            1.22845713230800        2.36915496843689       -0.60462041976964
H            1.97631912018151        5.31370435262222       -0.18123283625040
H            1.03894842019762        4.68826292137700       -1.51725827085765
H            3.45692767661190        5.05550866208816       -2.17076720596310
H            2.99644048162576        3.37419041369598       -2.32377730913375
H            4.55992611199964        4.57119264905805        0.03191128681085
H            5.18738805435815        3.48040018439936       -1.19241262301150
H            6.46457405041004        2.27995085381650        0.05780608214544
H            8.44566263031587        1.46909344362479        1.65076006018851
H           10.87647604111175        1.64563525709233        1.35246244382805
H           12.30838321539558        0.81874458340186       -2.72034102346591
H           14.74280917784979        0.95788497008407       -3.00220436208349
H           16.21956928206079        0.79744456483115       -1.04422063412276
H           15.25785899631707        0.48646246038776        1.19592085349217
H           12.82474752723948        0.32498305754204        1.47732895266283
H           10.61350112703216       -0.72239070683855       -2.17635602470322
H            8.17924667159421       -0.87575783761645       -1.88857806863820
H            2.86649364540758       -2.25726701872543       -0.26053576623842
H            3.69216009929219       -2.71489214425434        1.21229277405444
H            4.63507614581241       -3.25482477056211       -1.66073905316615
H            4.16731493523523       -4.45484125801100       -0.47233060923215
H            6.22494690110348       -5.65163762484196       -0.35338550794800
H            8.51356584331867       -5.78121638960160        0.53441175369710
H            9.63401914235641       -3.74097449751309        1.32462338598705
H            8.48594901871922       -1.59015154418750        1.20323359076798
