59
 energy: -11.771986682185 gnorm: 0.000571797921 xtb: 6.5.0 (97a52f5)
N            1.32675844042101       -0.04515497190442       -0.18116048798791
C            2.48251421911830       -0.03556194643912       -0.05704318578370
C            3.87257460954066       -0.03384064057364        0.09429633070395
C            4.58222003812946        1.18342582980112        0.22357428601922
N            3.92714532741775        2.43923763537484        0.28352060885518
C            2.64085924292608        2.65882949048978        0.97870248106292
C            1.56886262500839        3.14603633485269       -0.00021555339488
C            2.04830735850750        4.40501626569256       -0.74168717640309
C            3.40588663859444        4.16139421525644       -1.42391292831992
C            4.44195597487613        3.63295003791546       -0.42414880104048
C            5.97175892189803        1.13358898351517        0.25054529282543
C            6.68013741340797       -0.05818457247301        0.20189087172952
C            8.14366593296624        0.01422787151153        0.09839277926746
C            8.96984624692601        0.72631184079452        0.92478341137266
C           10.34052458478682        0.62806071004934        0.59281510436901
C           10.59649638657892       -0.15119623740219       -0.50253847167020
C           11.90084015004855       -0.44721216706784       -1.08419848715346
C           13.09058515944323       -0.08749647195066       -0.44857556566392
C           14.31053270702276       -0.38226341144333       -1.01724945022108
C           14.37186481371548       -1.03989773434483       -2.22983186777312
C           13.20672239802723       -1.40568226478369       -2.87342234038026
C           11.98610130018094       -1.11418469099680       -2.30634832543803
S            9.09576439285467       -0.77003884743423       -1.13659485001477
C            5.96252017767145       -1.28430590589591        0.17995248320760
C            4.56182162055860       -1.24661489230201        0.06723305116833
C            3.80112480983904       -2.53513880321093       -0.10683878242136
C            4.63144760106882       -3.60314284700580       -0.84109454598200
C            5.99280643692730       -3.74129192971119       -0.22675049637042
C            6.60140777658504       -4.97966964692661       -0.11337461930819
C            7.81778287403460       -5.11364227906937        0.52369853642636
C            8.43047416873887       -4.00618169083484        1.07026482081987
C            7.83795788911815       -2.76910284677832        0.96348985614485
C            6.62676115526120       -2.60034746514543        0.29071540705964
H            2.80627420796650        3.40164585499133        1.76513384676757
H            2.34137852923349        1.73774564836901        1.48887568921168
H            0.61862010346885        3.32921923136704        0.51977141635647
H            1.36094656180977        2.34995813438751       -0.72555543325886
H            2.14310814082259        5.23298012813974       -0.02846753290758
H            1.29800137697320        4.73319844233777       -1.47452238754324
H            3.76839170149351        5.07738749195914       -1.91052512318596
H            3.27947648894561        3.42764168069430       -2.22926119796882
H            4.68940861776661        4.39501940306135        0.32080143044113
H            5.37616890364348        3.37530154602257       -0.93274051883506
H            6.52293000117383        2.05341653362953        0.31281046727416
H            8.60148669258455        1.30033946912997        1.76112801932294
H           11.11262616817998        1.13204104089875        1.15246334438365
H           13.05178952308634        0.41754838711143        0.50045560900520
H           15.22070829189929       -0.10011448845449       -0.51326373378495
H           15.32764847541536       -1.26827779429373       -2.67253712256095
H           13.25232868919322       -1.91925084599174       -3.82005753988352
H           11.07599557407206       -1.39892652136161       -2.80475769986240
H            2.86599994291907       -2.34024419682068       -0.64625468767615
H            3.50462608987135       -2.90522478826758        0.88124631365184
H            4.74232172367883       -3.33157196174905       -1.89737173307044
H            4.11783983672524       -4.57256102482069       -0.82891480237252
H            6.10843005199388       -5.84605323955700       -0.52023371498913
H            8.28108866436638       -6.08327914705198        0.60569200017607
H            9.37382261470884       -4.10905913781313        1.58157719253328
H            8.31436363580141       -1.91388679747496        1.40768851306984
