52
 energy: -10.259045726947 gnorm: 0.000508752936 xtb: 6.5.0 (97a52f5)
N            1.18145150996463        0.12581666074067        0.29670600951168
C            2.34348637175222        0.14528462053573        0.27742343953423
C            3.74163022211641        0.15396896706076        0.25000403238006
C            4.45299156054075        1.37226437149414        0.15667627686086
N            3.80273734791373        2.63267416591483        0.15081022240632
C            2.60819714497246        2.94279029839079        0.96588877529524
C            1.41273488939913        3.30019793073971        0.07693187516351
C            1.77786013320819        4.43519494914341       -0.89446923038659
C            3.03876280089307        4.08616627799882       -1.70364321048208
C            4.20170428280960        3.71536597460368       -0.77603610470819
C            5.83662688555415        1.31548412123117        0.02246483413479
C            6.53867806683104        0.12250705294029        0.01711099615432
C            8.00106634143978        0.17909426029654       -0.22551013310727
C            8.84177340099188        0.86668072259439        0.64912801017094
C           10.20351091406648        0.90799968769088        0.42617039502582
C           10.74545974044007        0.27336384304870       -0.67151683994334
Br          12.61173783868644        0.32357125604282       -0.96520077766587
C            9.92711056612735       -0.40001819278432       -1.55370545459371
C            8.56459232315916       -0.44585586255858       -1.33770431461063
C            5.83346841851504       -1.09640171351899        0.18578981318224
C            4.42995916570407       -1.05958146392995        0.25512583805829
C            3.66239918638696       -2.35430231961699        0.30026753005692
C            4.37300180904232       -3.46886403927079       -0.48697930210207
C            5.81443714889894       -3.57326308779505       -0.08495621247649
C            6.44282528665864       -4.80477771700271       -0.01286458935786
C            7.74519165835155       -4.90888420001733        0.42916987594270
C            8.42742909685818       -3.77722166927481        0.82171427881406
C            7.81624266870929       -2.54659242194231        0.75314331360516
C            6.51274119275694       -2.40817314194408        0.27335187315012
H            2.85843433723424        3.77957981543644        1.62505334343199
H            2.38895579399796        2.09406231998162        1.62166293898837
H            0.54023982110276        3.56924804495230        0.68784739936025
H            1.11213268763641        2.41217515249086       -0.49221857606312
H            1.95467291578920        5.35659566357884       -0.32632699825721
H            0.93584676684121        4.65986580454981       -1.56380614429855
H            3.31961520339369        4.91356821777761       -2.36964558657364
H            2.82161086439609        3.23572364688503       -2.36128639983577
H            4.51770142129842        4.57808430751078       -0.18226200136984
H            5.07402269864025        3.39372920006174       -1.35335135992255
H            6.38676532216437        2.23346116723000       -0.07042697250637
H            8.41630588483892        1.35538290401922        1.50851234575986
H           10.85696984578294        1.43225217631210        1.10437733208005
H           10.36607631404408       -0.88982578017259       -2.40763486928170
H            7.92201195396606       -0.97427394513113       -2.02070444492835
H            2.64814890967860       -2.19772065081916       -0.08701051871250
H            3.53969847815904       -2.65485974824318        1.34701674614245
H            4.31569358765991       -3.26412276939993       -1.56216896942733
H            3.87310151998119       -4.43320658064445       -0.33415171413828
H            5.89860880747090       -5.68885133656176       -0.29827769564422
H            8.22291954348729       -5.87361539013922        0.48037697514551
H            9.43976627534801       -3.85636740176590        1.18318611610224
H            8.35005307435036       -1.67494414872400        1.08480783392832
