49
 energy: -9.585966920110 gnorm: 0.000496139600 xtb: 6.5.0 (97a52f5)
N            1.19988299360830        0.01193262194441        0.38799930886893
C            2.36146875639163        0.01866010522947        0.34469066854421
C            3.75891638588062        0.01199016636849        0.29582856455682
C            4.48550687948456        1.22237833620622        0.21183983252127
N            3.85405991950066        2.49287371821345        0.22572859528402
C            2.66193443691828        2.80866668378932        1.04136200482025
C            1.46444773340452        3.16183745413808        0.15310387143285
C            1.82690907314768        4.28970657496881       -0.82778259173046
C            3.08833120377548        3.93670229547908       -1.63452183998605
C            4.25118671237068        3.57368452126441       -0.70402765648622
C            5.86606989711861        1.14883323351620        0.06129113593680
C            6.55452613404870       -0.05415869351334        0.02727864599274
C            7.99763081957922       -0.00864049666588       -0.25322128159378
C            8.92387029115896        0.70028492038345        0.45737613304889
C           10.24687542029059        0.57844912816211       -0.04555988479221
C           10.33635560622611       -0.20974665860684       -1.14007348593843
S            8.78654934791000       -0.82818968480506       -1.58323001259910
C            5.83342360653199       -1.26566182005282        0.19561595033419
C            4.43088289874224       -1.21062004118149        0.27734983303800
C            3.64491128203076       -2.49479707515380        0.31788585705273
C            4.34435663375799       -3.62158102141350       -0.46208192186831
C            5.78155391484811       -3.74397018107565       -0.05115130298856
C            6.39059084136581       -4.98349168878419        0.04414755774375
C            7.68815393555063       -5.10070075050904        0.49729203162399
C            8.38467365604215       -3.97316758869397        0.87664251616189
C            7.79296251310953       -2.73451860482804        0.78454968119889
C            6.49507155356198       -2.58446614416761        0.29396336867129
H            2.91444135869841        3.64978861731934        1.69427065462550
H            2.44435265263609        1.96430311751827        1.70338279688997
H            0.59390993833794        3.43557690049521        0.76477945905268
H            1.16116607015974        2.27050625197510       -0.40931859519316
H            2.00066546127313        5.21684057919231       -0.26805111831003
H            0.98423364865678        4.50555768916109       -1.49932038621329
H            3.36845689256095        4.75999507468414       -2.30594127305897
H            2.87272458370921        3.08139763861517       -2.28639674157995
H            4.56142258812483        4.43993935734265       -0.11216201449295
H            5.12678803555296        3.25502388646689       -1.27811837508478
H            6.42630625587055        2.06090118251453       -0.02925301985515
H            8.66806134822215        1.29017258993458        1.32397784937056
H           11.09669894817676        1.07032484338103        0.40512218627551
H           11.24017379550178       -0.43299067004404       -1.67474193245658
H            2.63638513693474       -2.32355161586525       -0.07819948694983
H            3.50900256799761       -2.79170047866617        1.36408786916920
H            4.29661216758283       -3.41863984939005       -1.53822678259571
H            3.83038592536037       -4.57876037274974       -0.31004802873635
H            5.83530073124280       -5.86372626582591       -0.23149430230237
H            8.15122899759205       -6.07141332620321        0.56648187195939
H            9.39368971494558       -4.06199219183956        1.24512306802270
H            8.33883073451129       -1.86349226824009        1.09830072261268
