99
 energy: -21.669935283887 gnorm: 0.000189979711 xtb: 6.5.0 (97a52f5)
N           -2.83091740249701        0.05743090312430       -0.37724622353828
C           -1.67128908690772        0.03811326579342       -0.29691601381665
C           -0.27744861602854        0.01434767938384       -0.19990607684653
C            0.43785095625830        1.20369019472560        0.01462083402640
N           -0.24829355435435        2.47216258499737        0.08293434580448
C           -1.03675394392903        2.81115120234183        1.21894440434868
C           -1.26513245388333        1.87612585224080        2.22540915455485
C           -2.05075764717080        2.17891908993760        3.31189731588656
C           -2.61741940763399        3.43091389788948        3.41846489731671
C           -2.38454701432300        4.37385741709735        2.43876650327928
C           -1.59947539365838        4.08722092713717        1.33435239893184
C           -1.26502547133647        5.18885267109630        0.31912037596243
C           -2.53319684827251        6.03295493110868        0.11579759685392
C           -3.58134447547961        5.51897613201072       -0.63287587759279
C           -4.75354549395799        6.22756887437229       -0.79396015573037
C           -4.90221855777636        7.45936769870187       -0.19289729079991
C           -3.87960773672374        7.97420115808340        0.57538211007482
C           -2.70819755319501        7.26297660969529        0.73303787192581
C           -0.09131134901727        6.03189087148121        0.84872660934141
C            0.29050925309825        7.19967059323750        0.20480158831570
C            1.35698218677290        7.94780517904979        0.65892214152287
C            2.07108284780327        7.53386026371109        1.76282509632072
C            1.71779807554833        6.36740295760397        2.40620869306764
C            0.65018504043027        5.62383798167481        1.94891111197094
C           -0.82782954186913        4.58426312562032       -1.02170119692551
C           -0.90035473210772        5.32755947117372       -2.18845108559099
C           -0.45749660442866        4.81982737161246       -3.39271875885156
C            0.07224660846687        3.54846491762556       -3.44755941515768
C            0.14970321302503        2.79316094359331       -2.30184018829853
C           -0.29680884688782        3.29145493902922       -1.08029392277823
C            1.82616167350585        1.16091072077498        0.10543346539432
C            2.50255153921526       -0.03312900482099       -0.00499039651626
C            1.80800944577236       -1.20370862660527       -0.21189473479124
C            0.41994180900582       -1.19910382359295       -0.31589481291963
N           -0.29285484844781       -2.44350285038927       -0.48298444693215
C           -0.93245103640096       -2.75308904503317       -1.71664507716114
C           -0.98031482959507       -1.81265649004878       -2.74273886170118
C           -1.62123554349816       -2.08514248832052       -3.92774087136986
C           -2.22054723566840       -3.31222591002255       -4.11445863608857
C           -2.16461483781283       -4.26097747787435       -3.11452831993428
C           -1.52743303069213       -4.00460631343208       -1.91178571983789
C           -1.38459332844618       -5.11705311426769       -0.86378823584928
C           -2.71112346008323       -5.89281269293221       -0.82920739911503
C           -3.81523778778319       -5.32771458920472       -0.20871343448905
C           -5.03439063719755       -5.97249624959065       -0.20291432661497
C           -5.17288836425771       -7.19007578893146       -0.83454745775945
C           -4.09204559148383       -7.75416591716148       -1.47842147730088
C           -2.87397960828342       -7.10666004266415       -1.48093318848201
C           -0.19609968900042       -6.02035730685308       -1.23788903233455
C            0.02062153794656       -7.22032181022173       -0.57656129169450
C            1.10190730452159       -8.01924141736762       -0.88620744195729
C            1.99651094818748       -7.62504220519334       -1.85792314494379
C            1.80854377897449       -6.42736685912047       -2.51338437981543
C            0.72553294098417       -5.63293204938520       -2.20077943738156
C           -1.09400710678200       -4.53204481725497        0.52456747695840
C           -1.34185351379379       -5.27449454434647        1.66755507063413
C           -1.03507808060500       -4.78759089252561        2.92170227703200
C           -0.46732977172416       -3.53837496206168        3.05197839405811
C           -0.21596383856346       -2.78453852032240        1.93052186938315
C           -0.52328585545483       -3.26200101283333        0.65867627813834
H           -0.83194405278076        0.89635430616311        2.13379018732324
H           -2.22875597071214        1.43751289725538        4.07364841208079
H           -3.23573329187297        3.67430685945427        4.26693727381696
H           -2.80950377272439        5.35747875956171        2.53482597361946
H           -3.47065461880664        4.54788162897013       -1.08457421962202
H           -5.55453933573126        5.81553891864901       -1.38573055078204
H           -5.81768212034844        8.01453416201758       -0.31709112581907
H           -3.99689320982127        8.93147005641012        1.05658268165989
H           -1.92267876109559        7.65904929758068        1.35227858126182
H           -0.26215066121744        7.52976480421987       -0.65682670801934
H            1.63247551033319        8.85667923128667        0.14929969999315
H            2.90418416849266        8.11761258982935        2.11909537144741
H            2.27699254860039        6.03482416392893        3.26551906301367
H            0.38922976839712        4.70812616276940        2.44870456556792
H           -1.32205003358508        6.31680686661849       -2.15349255194201
H           -0.52527856060821        5.41601634243357       -4.28797075789705
H            0.41918506693735        3.14634613530558       -4.38543115059481
H            0.54826149185811        1.79508393697638       -2.34153080298268
H            2.36020629581556        2.08194659343865        0.26121856752168
H            3.57738654020667       -0.05150662442966        0.07058387749611
H            2.32703582477732       -2.14268615155676       -0.29382759642367
H           -0.52217374670022       -0.85202647969399       -2.59018713364080
H           -1.66106553191675       -1.33929746219512       -4.70476118092409
H           -2.72634305404186       -3.53184045449627       -5.04041938674583
H           -2.61411312271001       -5.22575296284533       -3.27073865470670
H           -3.71015275418912       -4.36702042568180        0.26595273185658
H           -5.87939492891487       -5.52152020722338        0.29119846086544
H           -6.12488652182322       -7.69546295142220       -0.83158486566018
H           -4.19973329505688       -8.70001743338591       -1.98383266227008
H           -2.04052445608399       -7.54004976007937       -2.00529012173015
H           -0.67269180816558       -7.53469445632666        0.18331995648218
H            1.24782391031800       -8.95223607327157       -0.36670364518620
H            2.84156412521108       -8.24834833623564       -2.10107921083622
H            2.50929165141245       -6.10986164004029       -3.26827246023435
H            0.59430742532921       -4.69256099250101       -2.70570088783032
H           -1.79368153794407       -6.24630934412584        1.57249492006934
H           -1.23855177946949       -5.38264448208560        3.79692415646803
H           -0.22615753243243       -3.15237301801306        4.02896445963058
H            0.21375069849882       -1.80345806083662        2.02750718346760
