96
 energy: -21.736934983923 gnorm: 0.000952194648 xtb: 6.5.0 (97a52f5)
N           -3.24883680753079       -1.52873912282462       -1.96795564120830
C           -2.32684970692786       -0.99566462741627       -1.50214784107129
C           -1.23084601353505       -0.34526153595715       -0.92262208097155
C           -0.01821515982471       -1.01370196454180       -0.85992111615226
C            1.11528334924390       -0.43215437801166       -0.31433729379988
C            2.30440515373344       -1.17027140501319       -0.26016020884626
N            3.30265521972305       -1.76394764255587       -0.21273634576059
C            1.03567714887139        0.88137297556266        0.18904902158033
C            2.20728929634860        1.55186583915251        0.79665682958434
C            3.43544900276556        1.58549636367169        0.14445110222895
C            4.54074307888643        2.19584774104789        0.71895379849650
N            5.81648943255417        2.17338483315900        0.05898303092920
C            6.71847353748874        3.25129452087768       -0.05025741973611
C            6.59593252085575        4.58848356343811        0.32575736635158
C            7.64658767324012        5.44008309710401        0.09047601923973
C            8.82094898385786        4.98616964923814       -0.51629420467292
C            8.95642257747683        3.67423810022533       -0.89998104727051
C            7.89532979229782        2.79721279829785       -0.66948690454426
C            7.71466920484284        1.39463464353283       -0.95627338290436
C            8.54627961391566        0.44137761558826       -1.54658490757321
C            8.08677568375696       -0.84731208714484       -1.67038326805944
C            6.81416354661784       -1.20267299697033       -1.21572043295470
C            5.98712236674306       -0.27541113883382       -0.63357039040779
C            6.43372533601803        1.03739725302887       -0.50280529546234
C            4.40515368560017        2.79381147586675        1.96218024236040
C            3.19227965264023        2.78124634818004        2.63253857862472
N            3.07658721110062        3.36979293563491        3.93805610338139
C            3.45427305423783        4.67820688830302        4.29862719830180
C            3.97694771781722        5.72090337529159        3.53523801667155
C            4.24950661147330        6.91736098610005        4.15076864489640
C            4.00832586670540        7.09634309470490        5.51605098697484
C            3.48785968345837        6.08114822702173        6.28154724129282
C            3.20380653373490        4.85923896653942        5.66949236885112
C            2.65720811832263        3.62132747479557        6.17274650303653
C            2.24395718252928        3.22226148472958        7.44486081065848
C            1.77728361458460        1.94119418796753        7.61410839384258
C            1.71839210063519        1.04847083110783        6.53998723348992
C            2.12116047340279        1.42614135578761        5.28315127748672
C            2.58984723195131        2.72540553428093        5.09236429939760
C            2.10155658932106        2.16135375422521        2.04204257584348
C           -0.18082990710180        1.54655246323929        0.12903446346628
C           -1.32249266227012        0.96794351787521       -0.41401226539444
C           -2.58425031470119        1.73880370513092       -0.44884456855659
C           -2.57869358023017        3.09412873658735       -0.78540164404113
C           -3.74173083302416        3.82266053299678       -0.80483139716607
C           -4.96153427799200        3.23023859581552       -0.48317600262960
N           -6.17335708381567        3.99082864718046       -0.50029952550183
C           -6.35259721746645        5.03823865551771       -1.46546274852092
C           -7.00014401328994        6.22140129124512       -1.11999296395476
C           -7.17464383173681        7.22286648051100       -2.04796529904503
C           -6.70722098259139        7.06109558234182       -3.33742303492049
C           -6.06423711849243        5.89263908135985       -3.69586339974667
C           -5.88810542818659        4.88981636359521       -2.76974701560324
C           -7.21782415920914        3.70627606479916        0.44216981792366
C           -8.55611572604507        3.78756631957896        0.06669777419913
C           -9.55698982017268        3.51818455116672        0.97237527918763
C           -9.24062815860394        3.16358531137769        2.26904894903178
C           -7.91797481605264        3.07957698424952        2.65720536754289
C           -6.91532287428940        3.34855852818799        1.75344921177570
C           -4.97126550075110        1.87813997857846       -0.14582179898502
C           -3.80884351044642        1.14911309313080       -0.12897835235910
H            0.04511129538416       -2.01628774542285       -1.24548937583694
H            3.53108835017563        1.13033857415396       -0.82363756735004
H            5.68481647209088        4.93534936049981        0.77745059192951
H            7.56559461451481        6.47593292861546        0.37631391859568
H            9.63039928219665        5.67645512706465       -0.68775151484209
H            9.85486300152601        3.31692899768142       -1.37113072190501
H            9.52548129887213        0.72319877814209       -1.89106060380971
H            8.71581904112059       -1.59573069585632       -2.12332937385148
H            6.47379611467299       -2.21932679031673       -1.32426959068855
H            5.00485575409801       -0.54383078854868       -0.29097976845535
H            5.26003567030593        3.24401656363092        2.42967108501062
H            4.14652550440641        5.57942495619106        2.48349198622923
H            4.65421979460335        7.73237517633076        3.57362498567552
H            4.23226929914328        8.04616161950509        5.97303867789994
H            3.29647822283753        6.21175734498528        7.33191195320139
H            2.29806248033126        3.91281841388809        8.26777406114294
H            1.45476570836083        1.61722767166733        8.58984580175988
H            1.35400283385928        0.04743144251571        6.70234246662398
H            2.09090473645665        0.74254793658828        4.45370743007105
H            1.16282302300809        2.14522838225991        2.56392829260932
H           -0.24175916419964        2.54406704594205        0.52488268085887
H           -1.64618558706820        3.56355369208006       -1.04689354800884
H           -3.72416183479098        4.86770060433834       -1.05977830620454
H           -7.35496466943146        6.34366851878725       -0.11165080100324
H           -7.67609196791369        8.13471204239077       -1.76791294326474
H           -6.84483443991295        7.84553859431174       -4.06337845585487
H           -5.70187122101362        5.76471380104703       -4.70268929815370
H           -5.39896474970192        3.97191154957319       -3.04531334785369
H           -8.79535223457408        4.05512128409462       -0.94757723144445
H          -10.58896948165718        3.58242983088363        0.66865754169771
H          -10.02486847503826        2.95238514441492        2.97734756456305
H           -7.67055923056358        2.80402181540406        3.66924539125741
H           -5.88317874645029        3.29559481390435        2.05262993032222
H           -5.91064731813614        1.40755456928941        0.08559798901873
H           -3.83354172003712        0.10482594035092        0.12997939104450
