78
 energy: -17.287210622165 gnorm: 0.000757200847 xtb: 6.5.0 (97a52f5)
N           -3.38932447865086       -1.44429486399572       -0.05140707951168
C           -2.39776655948419       -0.83773067487508       -0.02995749963039
C           -1.21535982866660       -0.09025849168803        0.01490212276289
C           -0.01160710440265       -0.77566111639166        0.00545659091369
C            1.21078878744118       -0.12443834709066        0.02713948576100
C            2.37212399835791       -0.90548408462727        0.03792469668173
N            3.34550030627526       -1.54112854416669        0.03013970541754
C            1.23987289933737        1.28712344186124        0.04847751894908
C            2.50803011685377        2.04798326733572        0.05245107338014
C            3.62443119665991        1.61116312843178       -0.66421873911736
C            4.79570101593997        2.32529764518610       -0.66205376841422
C            4.90492683699486        3.51770703135255        0.04968752788077
N            6.12928297182363        4.25578762015066        0.05495627817376
C            7.03076125901941        4.17285684587182       -1.06024581050649
C            8.40532475244080        4.09020804286535       -0.85425889554592
C            9.27111369776839        4.00096337052618       -1.92047833531126
C            8.78107019592425        3.99488059676564       -3.21154033205135
C            7.42061237789587        4.08108609231954       -3.43254632859805
C            6.55264937220572        4.17056230545652       -2.36801857417766
C            6.49674062749408        5.04949706757603        1.19376108537575
C            7.12260596294191        6.28159856932211        1.02416916093895
C            7.48208615841201        7.04206756627701        2.11357726282110
C            7.22599347600119        6.58550008261337        3.39148832150557
C            6.61082649331520        5.36293613240655        3.57619317466367
C            6.25025178044445        4.60038795736489        2.48852307181400
C            3.79200429676720        3.96389619770736        0.76005543321873
C            2.62193335605004        3.24526853766752        0.76355651334952
C            0.02674691043099        1.96754740248458        0.06835372039851
C           -1.20500924955902        1.32112132180123        0.05819283463689
C           -2.45099733594063        2.11722406514166        0.09055261842022
C           -2.53019036436799        3.34906814653713       -0.56419692404049
C           -3.67877734123089        4.10055232458274       -0.52547752396997
C           -4.80380370188601        3.65450837473308        0.16557565885003
N           -6.00602492265103        4.42806758048157        0.19787482107990
C           -6.36033091376843        5.26965213661992       -0.91005460355099
C           -6.96226666736545        6.50657201992421       -0.69491468417069
C           -7.31101177072267        7.31179379639614       -1.75526860441516
C           -7.06718853253434        6.89645752652923       -3.04953472359187
C           -6.47460098999079        5.67044184512718       -3.27950920798861
C           -6.12527257472305        4.86307314002948       -2.22090208375565
C           -6.89547886207409        4.33685431632281        1.32187514092577
C           -8.27479847257451        4.31011810387666        1.13341666746601
C           -9.12895586650990        4.21499736035257        2.20847578594765
C           -8.62237379032807        4.14656404925478        3.49133292820171
C           -7.25680990978322        4.17566899086377        3.69505918881243
C           -6.40045642734429        4.27084764687624        2.62166748894484
C           -4.72966873131178        2.42733623322448        0.82048792314184
C           -3.57986244723365        1.67983283390395        0.78711568672682
H           -0.02645308895876       -1.85153525624715       -0.01931825372837
H            3.56372846919333        0.69321469830371       -1.22185720790644
H            5.65375595307382        1.95842929640404       -1.19729373462011
H            8.77913997954673        4.08581724148035        0.15460981869186
H           10.33249218935202        3.93275774596539       -1.74686216409369
H            9.45966302985681        3.92205306119378       -4.04549224561236
H            7.03782741370616        4.07775182149450       -4.43989823849457
H            5.49216072979381        4.24611982548279       -2.53330276759607
H            7.31500242098028        6.63226514082759        0.02535395196152
H            7.96407364023095        7.99495242928769        1.96859235764278
H            7.50712163749028        7.18208192537837        4.24372657183460
H            6.41448276180621        5.00400143781885        4.57314240985223
H            5.78362091573400        3.64058361326535        2.62534337286314
H            3.86134623789488        4.88928010051992        1.30430905270593
H            1.78229579500321        3.59617177922949        1.33770351094990
H            0.04171986621868        3.04141410237265        0.09301556880695
H           -1.68009236897371        3.70237341356127       -1.12119827067801
H           -3.72088272408872        5.05220770608344       -1.02545440536531
H           -7.14471940464086        6.82548905597098        0.31632946825061
H           -7.77506160358858        8.26754677557558       -1.57494040742256
H           -7.34058437895847        7.52761491939814       -3.87908220338455
H           -6.28732424185338        5.34411756474819       -4.28933065555755
H           -5.67641732543241        3.90057472040807       -2.39352138303933
H           -8.66210366770854        4.35406636675383        0.13060011742971
H          -10.19436989824906        4.19109391724452        2.04832215869552
H           -9.29196003018620        4.06945094129692        4.33215262296144
H           -6.86112957996629        4.12333962941769        4.69606058863925
H           -5.33580404481903        4.30208362132203        2.77397148601866
H           -5.59826015337829        2.06235597737385        1.33984077507397
H           -3.54668053277907        0.73464183677467        1.29973233632410
