27
 energy: -6.255100044725 gnorm: 0.000271859699 xtb: 6.5.0 (97a52f5)
N            1.23600636536486        0.07027981998126        0.02437669119397
C            2.39714661368407        0.03699304808250        0.02500224665722
C            3.80051396417285       -0.00632871935865        0.02734237964053
C            4.46086508435463       -1.22777792450252        0.02849401683741
C            5.85167310623801       -1.29896292419380        0.03109429409721
C            6.55407637116009       -2.54600083528778        0.03256255730288
C            7.90362030463585       -2.58927669533378        0.03537133701170
C            8.68511038994184       -1.38986650898367        0.03692659663232
C           10.07956700664397       -1.40642592316125        0.03970783437059
C           10.79888373835949       -0.22954860053472        0.04095585348632
C           10.15610290364221        0.99081427933228        0.03952696736790
C            8.76343764054017        1.06330886101898        0.03680391898737
C            8.05991629884585        2.31004350980151        0.03524596104631
C            6.71034943224175        2.35287835031074        0.03255842375398
C            5.92976674356297        1.15321247156984        0.03117073462016
C            4.53723325324230        1.17063989920889        0.02861880641601
C            6.59591873837128       -0.09534590105253        0.03253238344615
C            8.01933060601036       -0.14077347660704        0.03545615569102
H            3.88283181844590       -2.13434398716565        0.02745822237865
H            5.98216023672994       -3.45753103956699        0.03140352230341
H            8.41539699807864       -3.53586912697781        0.03648417921833
H           10.59134528542939       -2.35316692045571        0.04082911297985
H           11.87591276159083       -0.26403620959172        0.04305646841894
H           10.72735504364137        1.90290899479287        0.04051054434096
H            8.63107958281116        3.22203531200871        0.03625556482399
H            6.19768235478008        3.29900528183947        0.03143004335793
H            4.01799735748013        2.11211496482656        0.02770518361889
