84
 energy: -18.880801641710 gnorm: 0.000392706251 xtb: 6.5.0 (97a52f5)
N            1.12842781725960        0.02335178451515       -0.58160439208909
C            2.26292923813924       -0.16363488925589       -0.74909342910551
C            3.64094212785723       -0.36427682964515       -0.91684035579188
C            4.50712922001413        0.26532232629162       -0.06037494735210
C            5.90396071428899        0.11953723388705       -0.15757402028981
N            6.68966081170241        0.77395016897328        0.72445251315448
C            7.95932238120076        0.55417569433174        0.53009674253621
C            8.47791053816167       -0.27729152966538       -0.48763405589072
N            7.74921172828122       -0.91880606085304       -1.35677482490649
C            6.42600272900988       -0.71294538358715       -1.18381617302936
C            5.52109257255176       -1.35117367782030       -2.05311257220716
C            4.16311191850358       -1.19653220772414       -1.94342420908226
C            3.33292723319282       -1.86751040383113       -2.85335313449594
N            2.67435336607283       -2.43711804867202       -3.62272221222489
C           10.00244500322093       -0.34890741383920       -0.46513335443482
C           10.37318571312790       -0.82303751346024        0.93640346407485
C           11.10409988181391       -1.94820287227764        1.26917207324691
C           11.31653023500805       -2.24967973856299        2.59595011801944
C           10.80801440292219       -1.43907394918727        3.61146402548707
N           11.00841261777583       -1.78049403169080        4.98933409877018
C           12.22550077082137       -2.41560635834822        5.40576570065417
C           13.44614245076349       -2.05670494297438        4.84039215939233
C           14.61177770111459       -2.67080791887209        5.23885159692502
C           14.58030565918237       -3.65335473430697        6.20869405137998
C           13.37760195534597       -4.01958557928999        6.77983472769018
C           12.21062310337247       -3.40698584300128        6.38324899453873
C            9.97881469687296       -1.50505895872988        5.95013988384268
C            8.63469269915863       -1.64330633052269        5.61339530477650
C            7.64849530712907       -1.36983640594981        6.53366781866520
C            7.98564877213143       -0.95530715161215        7.80698046540743
C            9.31416170151270       -0.81599509953792        8.15720965068593
C           10.30235073364781       -1.08836620363337        7.23857065882184
C           10.07901610438369       -0.30354907867048        3.26675285656304
C            9.86045223477161        0.00056036565480        1.94144936715489
C            9.05424819669843        1.17380882200782        1.39517541290534
C            9.97371451367755        1.91680422089118        0.43172130728180
C           10.29956331975432        3.25996242959627        0.46037650318878
C           11.12382000018908        3.77746930827758       -0.51373370122728
C           11.63464734283979        2.97014580077788       -1.53060766423099
N           12.46227407365560        3.52800768197292       -2.56043783133364
C           13.40070437280370        4.56598703291349       -2.24532446729713
C           14.09333924739682        4.55540787795998       -1.03764344870137
C           14.99065252060761        5.55405645621001       -0.73417824423440
C           15.21265990595549        6.58109063849524       -1.63019307174629
C           14.53335611737555        6.60579916182971       -2.83220818542609
C           13.63570840069586        5.60821550165692       -3.13808710701733
C           12.32768370927136        3.06181616040599       -3.91049928370897
C           11.08075170265367        2.70664047453788       -4.41855891248175
C           10.95194705866480        2.25580348598169       -5.71251681177599
C           12.06500935726034        2.15170729362043       -6.52305205789898
C           13.30858841236075        2.50030745750453       -6.03416147021831
C           13.44009054207401        2.95124120343580       -4.74030606877082
C           11.30773050206978        1.61642751737918       -1.54725185247251
C           10.48416959111570        1.09372978324677       -0.57498653622151
H            4.11357866099985        0.89598955594997        0.71607024652387
H            5.91781949364985       -1.98097095053679       -2.82871031013226
H           10.39897622015364       -0.99607528848553       -1.25734580189932
H           11.48811442190860       -2.58267345276261        0.48969619069313
H           11.86607439086717       -3.13369726988261        2.86736108875298
H           13.46492430783234       -1.28383327631812        4.09218003525910
H           15.55034599980880       -2.38390610549474        4.79394771213510
H           15.49331145802250       -4.13407500959277        6.51935864941646
H           13.35229233221870       -4.78740100945472        7.53548733368718
H           11.26889960196664       -3.69497835401537        6.81649293163098
H            8.37823601199812       -1.97504975826296        4.62249819423781
H            6.61199067597559       -1.47954197709915        6.25996352430796
H            7.21275386720400       -0.74053048416905        8.52653461116531
H            9.57755080572621       -0.49160067800427        9.15048008521699
H           11.33900811559145       -0.97194926606210        7.50169802848621
H            9.68370630631960        0.33252494079679        4.03673912245236
H            8.64528648800554        1.81845249097598        2.18311683747921
H            9.89738428129501        3.88845903009301        1.23552084922527
H           11.36984948133980        4.82467745497516       -0.51347933089000
H           13.92257370908278        3.74761293974538       -0.34782920537936
H           15.52141617253798        5.53398677778387        0.20341281616000
H           15.91495521826195        7.36276905155989       -1.39157731185222
H           14.70492018236323        7.40800423274800       -3.53093540922711
H           13.09509693904186        5.62764393568261       -4.06803371994650
H           10.21582379794560        2.79788141439444       -3.78510776934481
H            9.98112472802014        1.98446975933418       -6.09349822985537
H           11.96322836530036        1.79859949301635       -7.53603692239919
H           14.17758695375830        2.41770797129971       -6.66597444695730
H           14.40748398389651        3.21458966636684       -4.35015549602529
H           11.69632400142886        0.98207743854456       -2.32210940243134
