118
 energy: -27.219266030060 gnorm: 0.000791234022 xtb: 6.5.0 (97a52f5)
N            2.41199352905450        2.00307251124949       -0.97285720975404
C            1.69695423319419        1.10453494772123       -0.79107697860184
C            0.80622470863467        0.04595146040360       -0.58966246695706
C            1.27311113126012       -1.20028472021092       -0.24168279666105
C            0.40603279243723       -2.27197527653744       -0.06215211586914
C           -0.95306253047924       -2.11916154940431       -0.20926519330146
N           -1.82664203597941       -3.26309223079808       -0.13800194739998
C           -2.58395266059709       -3.78100034185791       -1.20882878110996
C           -2.58262457945816       -3.20923338539479       -2.55220213955858
C           -1.42036946034060       -2.66227562449197       -3.06828755300597
C           -1.41190852031616       -1.95991538102728       -4.25713564356101
C           -2.56998379613836       -1.76946922626828       -4.99161023224052
C           -2.55040130401659       -0.93414678962788       -6.21328324226465
C           -2.90905201262649       -1.48405116133104       -7.43250513912908
C           -3.01779819853716       -0.70807624683984       -8.56910675154993
C           -2.77043821720882        0.65366901198735       -8.54765851597119
C           -3.10485322745140        1.46590503361611       -9.71462587121127
N           -2.45884622231857        2.55955346611649      -10.09871126083418
C           -3.14186468632464        3.05241667321828      -11.15398966951770
C           -2.85165694334045        4.22888487066450      -11.93229013374525
C           -1.71182141857606        4.99150563643104      -11.67265695171891
C           -1.43574389188574        6.10578157620902      -12.41835159783692
C           -2.29438913947683        6.48171599134079      -13.44084539316982
C           -3.42145103197620        5.74628404555952      -13.70993288692331
C           -3.73841626628295        4.60064205859548      -12.96767084029123
C           -4.94274379831982        3.80278350981490      -13.22335056564268
C           -5.86798000393111        4.14919977601105      -14.21718894674425
C           -7.00078827071424        3.40544857176460      -14.42982903075150
C           -7.25965908266005        2.28514515512921      -13.65499226663515
C           -6.37737414640592        1.91437489700837      -12.67773202626189
C           -5.20986630587699        2.64864194159875      -12.44683692186054
C           -4.27221832362914        2.27693135744864      -11.42218155533158
N           -4.25279137093001        1.24304056163540      -10.50148572257674
C           -5.24688362701455        0.22964936230624      -10.25133786231468
C           -5.40426368053563       -0.82674553034671      -11.11809172049277
C           -6.27910159098392       -1.86807170243193      -10.82913492790924
C           -7.00954913018244       -1.88553194781021       -9.66351984433458
C           -7.86373218621116       -2.95417893082987       -9.37557857915123
N           -8.57703820356429       -3.82980547449098       -9.10010092099407
C           -6.87581441400795       -0.80725630963143       -8.74014299611557
C           -7.58900676368695       -0.77505631745396       -7.52345014962549
C           -7.43070205784393        0.25551539047806       -6.64652190619059
C           -6.55957073470136        1.30735712629040       -6.94428822862843
C           -5.86432475851415        1.31159520120689       -8.11596288327096
C           -5.99748789846321        0.25787898269668       -9.04033456946908
C           -2.32819806461626        1.25374053791249       -7.32383319199498
C           -2.04515651739512        2.62992447785323       -7.23384490178892
C           -1.68962584203370        3.20417868202164       -6.05023223032831
C           -1.61016333900360        2.42904828298118       -4.89302598540003
C           -1.88002030702862        1.09325666851397       -4.94072108841379
C           -2.23348692538025        0.46395798726173       -6.15215195513731
C           -3.79162085118731       -2.35550509932528       -4.52000989784935
C           -5.01089041971869       -2.18276487205612       -5.20750753317337
C           -6.16915198816411       -2.72693838833553       -4.73714276209173
C           -6.16946362050255       -3.46084482229162       -3.55131385897595
C           -5.01119492726276       -3.63129459503226       -2.85412212102340
C           -3.79392708593525       -3.08847708098711       -3.30862167134442
N           -3.37034532428930       -4.77207523743700       -0.80929929919772
C           -3.13120395375633       -4.94129321816818        0.50770800654073
C           -3.73749455071925       -5.88965379622657        1.40561770150302
C           -4.66360150735181       -6.82285160440773        0.93688127697805
C           -5.23461423678402       -7.72595843613930        1.79252362790128
C           -4.89104542016641       -7.71547324243452        3.13637957170210
C           -3.98400615657312       -6.80424097687597        3.61660909823769
C           -3.37974333347550       -5.86320329937533        2.77193485896667
C           -2.41873297721941       -4.86698972816800        3.25789652630848
C           -2.05711459951925       -4.78118776746300        4.60898740810157
C           -1.17658489959345       -3.82833572144197        5.05398629104252
C           -0.62268712136658       -2.91723688326309        4.16771736964461
C           -0.94908938647165       -2.97284277637479        2.84052752682720
C           -1.83549977494462       -3.94087932956837        2.35806908369223
C           -2.19487116571493       -4.01263000847029        0.96729477644242
C           -1.47943980261324       -0.83908015471285       -0.54992093505624
C           -2.86167474123300       -0.63204908574908       -0.72145686204017
C           -3.34658686497383        0.58482174945019       -1.09632093811339
C           -2.47384287873589        1.65620030184822       -1.30663977919573
C           -1.13181991295860        1.49254149192571       -1.13858883463952
C           -0.59602783811077        0.24437845595460       -0.75706107171427
H            2.33396501175764       -1.34153492191739       -0.12378464563737
H            0.79266397326662       -3.24826695639646        0.17305601150734
H           -0.50858000061398       -2.76247613684665       -2.50705401922009
H           -0.49353620897394       -1.53020764901149       -4.61890858187179
H           -3.13519413364620       -2.53560174489616       -7.47861383997519
H           -3.34129471723013       -1.15963116337251       -9.49013943543877
H           -1.05489830878800        4.68379405878302      -10.87774815577292
H           -0.55305861624027        6.68898118670365      -12.21329990572943
H           -2.07259368585523        7.35832463359076      -14.02729088967017
H           -4.06850130192441        6.06131380092293      -14.50777109908751
H           -5.69513619722624        5.01641105561396      -14.82752486594503
H           -7.69707510491462        3.69387708430136      -15.20026995561020
H           -8.15512624604590        1.70920839992863      -13.82215919977269
H           -6.58101000130258        1.05265983940500      -12.07071777102644
H           -4.81578546612924       -0.84702953256462      -12.01874419086037
H           -6.38343253417002       -2.68926230020871      -11.51758151217877
H           -8.26493265516032       -1.58216955529591       -7.30132123867268
H           -7.97973170558303        0.26348259639036       -5.71933151792226
H           -6.43876044464260        2.11652199781882       -6.24303731634997
H           -5.19192751133791        2.11813344933409       -8.34815470008314
H           -2.11100427461341        3.22664036044499       -8.12419439761499
H           -1.47340116003599        4.25892635222226       -6.00450120752338
H           -1.33609115761731        2.89010116356200       -3.95867312789088
H           -1.83901007950927        0.50845040288010       -4.03921860228736
H           -5.02524800424478       -1.59887230885127       -6.11041974638314
H           -7.08876105258510       -2.59095731684874       -5.28121725209162
H           -7.08872747516120       -3.88907300090800       -3.18670371662197
H           -5.01325749662461       -4.19438616547319       -1.94018888723727
H           -4.91649096593946       -6.81882075135088       -0.10914036140042
H           -5.94799274654450       -8.44451320161862        1.42362028512841
H           -5.34093788448200       -8.42944325171045        3.80675278140478
H           -3.73740833763431       -6.81929892041659        4.66226477860481
H           -2.47728079028589       -5.47031483521952        5.31823661278433
H           -0.91611312780145       -3.78289158820443        6.09881553179841
H            0.06262353898667       -2.16610727984451        4.52495971925476
H           -0.52924683168514       -2.26109426602316        2.15524636671518
H           -3.52963567994918       -1.45990926769872       -0.56304638078960
H           -4.40629312191772        0.72394621969229       -1.23333492239763
H           -2.86756793351297        2.61549546707772       -1.59979887318125
H           -0.45762713233164        2.31617056493595       -1.29640704086203
