106
 energy: -24.440249123862 gnorm: 0.000572516000 xtb: 6.5.0 (97a52f5)
N            3.79631343460847        1.34477367912516        0.89664411614571
C            2.94008658123184        0.56912855291672        0.76693033618787
C            1.88679915425460       -0.33872341122899        0.62180843119167
C            2.11676974117800       -1.59256781630281        0.10440201373143
C            1.08373403114257       -2.50916310360278       -0.05511967929388
C           -0.20539531042233       -2.19063177140675        0.30092382752884
N           -1.27734715874396       -3.13498280006282        0.11321317704186
C           -2.23589465345274       -3.16025832263411       -0.91875739203853
C           -2.29825681357917       -2.25293870654923       -2.05781553050236
C           -1.26212724779637       -1.37964068492639       -2.38502823435131
C           -1.37441320975832       -0.51429800983561       -3.44431949335039
C           -2.52944856454410       -0.48213657721688       -4.22757400706280
C           -2.66723142374242        0.47883745658376       -5.33947690797620
C           -2.08071631646587        1.74382564664234       -5.26974443023832
C           -2.23237947357838        2.64903860048386       -6.29079153979463
C           -2.97881165726156        2.33651673859509       -7.42489183506222
C           -3.13427614296164        3.34340195939268       -8.46684473642934
N           -2.48933546152696        4.49965395806806       -8.43318383291477
C           -2.90345731930259        5.20398979053116       -9.50915212836663
C           -2.52225743592870        6.53423488323015       -9.90678603346752
C           -1.57243758287700        7.25122539106559       -9.17730300057913
C           -1.21076103926790        8.51471158886000       -9.55989458212777
C           -1.79152223898564        9.08860459775637      -10.68126796029945
C           -2.72873620672569        8.40036625286688      -11.41033348155681
C           -3.12636465325335        7.10604698462003      -11.04887584039690
C           -4.13442461289072        6.35034967799774      -11.80066137168850
C           -4.78302491453142        6.88559333527233      -12.92162328620653
C           -5.73379276595951        6.17183781439149      -13.60579124812716
C           -6.07781273556922        4.89190322557737      -13.19857476314342
C           -5.46542331983504        4.33619238587455      -12.10912171431666
C           -4.49146017018331        5.04119482517469      -11.39485674878011
C           -3.84662810722895        4.48050440298604      -10.23781058242732
N           -3.99269260862301        3.26913462776565       -9.58128404340447
C           -4.93355138876942        2.22890818655964       -9.91122112194775
C           -4.60884386849479        1.24989214275631      -10.82006793816323
C           -5.51002763198733        0.23929150671616      -11.13508307787932
C           -6.75475581300239        0.18377763208354      -10.55181834324556
C           -7.64366738786777       -0.84344951100885      -10.88244621595983
N           -8.40090293494767       -1.68770715676642      -11.13821738336171
C           -7.12831691664898        1.18494774211042       -9.60695648138452
C           -8.38951175295881        1.18589993174052       -8.97502912755479
C           -8.72007495618486        2.15529547409852       -8.07604254272310
C           -7.81015735764493        3.17002100203669       -7.76333123360896
C           -6.58337878136636        3.19813859029235       -8.35578736184949
C           -6.21213471339671        2.21177809992377       -9.28811322815419
C           -3.55475402302904        1.06917294004234       -7.50096196931605
C           -3.40278079581204        0.16109028035232       -6.48266676752572
C           -3.55907796429717       -1.37046648327960       -3.91115004860746
C           -3.44313647927597       -2.23671186593295       -2.85181325118019
N           -3.15022398250426       -4.09376154926349       -0.70331763954176
C           -2.81717702356377       -4.69857871698360        0.45828248683453
C           -3.50331002414857       -5.76549980557122        1.13963853936787
C           -4.64678096374899       -6.34481140834070        0.58714042144288
C           -5.29612347801311       -7.35900757956541        1.23784645245688
C           -4.81525684220109       -7.81639227889106        2.45590893852612
C           -3.69360338121493       -7.25838272698973        3.01625492639654
C           -3.00308592122945       -6.21704806773285        2.38159950361839
C           -1.81020823820084       -5.59126117452367        2.96279932445728
C           -1.29191914341709       -5.98574257712453        4.20359977622937
C           -0.18449939539575       -5.38022923198697        4.74072531584218
C            0.45227110824974       -4.35306210936639        4.06115873262083
C           -0.02411754544430       -3.94211538019700        2.84669915801596
C           -1.14897130163695       -4.54482195128637        2.27468555597627
C           -1.67046967096688       -4.12162388289685        1.00278975452691
C           -0.48609068522320       -0.90700199398670        0.84595917963380
C           -1.79202281861051       -0.54357035681517        1.22352480853504
C           -2.05059926721760        0.69207030215652        1.73635908289458
C           -1.01587391480318        1.61918226291144        1.89492753342914
C            0.25946177016218        1.29634336689657        1.53928129466079
C            0.56230592229479        0.02613918312339        1.00553922381253
H            3.12003034671864       -1.85818881530762       -0.18225216538340
H            1.27994091697633       -3.48370549911512       -0.46666141927916
H           -0.36219598139354       -1.38704701095728       -1.80058158189671
H           -0.55759756920707        0.14347731335893       -3.68520385174423
H           -1.52371117013162        2.01800849385058       -4.39098710147831
H           -1.78288355180478        3.62467857125680       -6.22619110532376
H           -1.13128204111472        6.78997501138897       -8.31085132425321
H           -0.47648274861353        9.06232863179405       -8.99222871078465
H           -1.50324931153999       10.08306865706950      -10.98035075799457
H           -3.16089450392794        8.86959028151458      -12.27490258181462
H           -4.53937745133645        7.87740863684824      -13.25534984739836
H           -6.21976680448952        6.60768213328286      -14.46336026195224
H           -6.82803220022078        4.33772139636140      -13.73849443031063
H           -5.73529247061215        3.34748648687481      -11.78905950114093
H           -3.63852600281480        1.27761218865246      -11.28405507189310
H           -5.23806027440665       -0.52043912748848      -11.84789841520325
H           -9.08854763935553        0.40439798008763       -9.21696507856819
H           -9.68780342810315        2.14230053064366       -7.60217155165927
H           -8.08238174947856        3.93118946840149       -7.05086151850716
H           -5.87695350453247        3.97435965490855       -8.12016642289677
H           -4.12268481435004        0.79945835716233       -8.37041677190189
H           -3.84479470686911       -0.81623170607898       -6.56822790490521
H           -4.46461640024156       -1.35451237679163       -4.49197846545279
H           -4.24504504072098       -2.91184920239242       -2.60848142703967
H           -5.00543882793804       -5.97806727126397       -0.35888077335484
H           -6.17849034158426       -7.80153363237341        0.80554413482312
H           -5.32842450997384       -8.61590258264934        2.96479105924792
H           -3.34395315205635       -7.63296312717171        3.96063628934057
H           -1.76891802474349       -6.77586706190614        4.75368433836807
H            0.19302925818837       -5.70129439644227        5.69777697471782
H            1.31973150252448       -3.87899036819121        4.49038746484541
H            0.46484823730282       -3.14327901314794        2.32181026002599
H           -2.58254541144248       -1.26178400717237        1.09593349650049
H           -3.05522549103797        0.95832175394290        2.02085394934240
H           -1.23108198827957        2.59398329899595        2.30070823505710
H            1.05682061581248        2.00873834488578        1.66021806467176
