51
 energy: -10.956916410319 gnorm: 0.000330198422 xtb: 6.5.0 (97a52f5)
N           -3.10433103443413       -0.12043084529091       -0.61362646586255
C           -1.95065044913849       -0.11672169443892       -0.47218636863967
C           -0.55941524618368       -0.11227068847106       -0.29859427925128
C            0.12492457723488        1.07881490718891       -0.08520747163189
C            1.48874624458784        1.08329598616153        0.08991137335331
C            2.22299616353790       -0.10400088879967        0.05535705094999
C            3.66330187815895       -0.06140758634544        0.25390485655647
C            4.50195315494903       -1.09650727075347        0.08533781515492
C            5.93838174378232       -1.06004118294829        0.29906924775387
C            6.71111537733151       -2.18183734510472       -0.01287541394837
C            8.06980130815565       -2.18682048334588        0.18591385536782
C            8.72572475155461       -1.07371776228422        0.72032128676061
C           10.16706365146715       -1.10787291478920        0.90387932801502
C           10.91098452966435       -0.35297694620486        1.75991872236591
C           10.28914104850355        0.52436218996456        2.78048143613655
C           10.59735610586514        1.88315684042583        2.83047410749817
C           10.02370855170591        2.69925116042453        3.77968329690200
C            9.13727068451665        2.17539232880777        4.69929485365588
C            8.82775380345785        0.83038722439004        4.67082950764923
C            9.39973947189367        0.01033581017821        3.72405010601671
C           12.38611822577905       -0.43950109879907        1.72825964607511
C           13.12836484563527       -0.24605166690340        2.89305109436909
C           14.50385359835679       -0.30905844988435        2.87539428500655
C           15.16926045065901       -0.56396984047514        1.69365063774377
C           14.45379072108068       -0.75381605380630        0.52883672374408
C           13.07768187463455       -0.69165106339035        0.54313630089348
C            7.95306646576808        0.05382542226541        1.01412101114240
C            6.59497635480427        0.06083214449501        0.81378276545001
C            1.52874668651775       -1.29694692825390       -0.15809992802015
C            0.16424572979942       -1.29883490883436       -0.33178718644226
H           -0.43180314854992        2.00009449171066       -0.05813214422523
H            2.00568387396744        2.01319739043538        0.25452537926977
H            4.06986288703317        0.88807270749249        0.54912851890462
H            4.09826581022951       -2.03539661157052       -0.24598453211816
H            6.22500334342838       -3.05298235708404       -0.41746997756163
H            8.64660845276702       -3.06150709073374       -0.06127752041159
H           10.69482503404794       -1.82201773480983        0.29619647829096
H           11.28976914991819        2.28641600830299        2.11165893895812
H           10.26817235731240        3.74852920200998        3.80527161676359
H            8.68852706022466        2.81603176066737        5.44071663171834
H            8.13688718798801        0.42162868754288        5.38987788455583
H            9.16189205932393       -1.03914461844592        3.69787803383221
H           12.60908126646791       -0.04797205691292        3.81470968304900
H           15.06142283720933       -0.15785334438054        3.78517913207413
H           16.24589243739096       -0.61125823449722        1.67986022147119
H           14.97374799228771       -0.94677777341886       -0.39526298452891
H           12.52695600697655       -0.81580782440472       -0.37288491324901
H            8.43734824696644        0.93553031914279        1.39294928982713
H            6.03140585203156        0.94204437442185        1.06195343232344
H            2.06286697286088       -2.22992074792758       -0.17429741389500
H           -0.36355694952727       -2.22349494272258       -0.49314794981300
