29
 energy: -6.116437440240 gnorm: 0.000649417716 xtb: 6.5.0 (97a52f5)
N           -2.82977152117350        0.03583435868221       -0.98533325091305
C           -1.69727286753252        0.01616043959483       -0.72617083333169
C           -0.33309471282211       -0.00476219874345       -0.40787239452335
C            0.29862193325853        1.13878087725225        0.07350750691489
C            1.63535064012209        1.12203694717768        0.39094663872245
C            2.37681820308453       -0.04544430514043        0.23400039209603
N            3.73817169110319       -0.10612926283644        0.55019499869030
N            4.43373394130740       -1.23675005585129        0.40868373925442
C            5.67896321748290       -1.33950593872122        0.70065283037833
C            6.43257103527423       -2.54604224732696        0.53596726156584
C            7.78382439946604       -2.57297321902858        0.88030457199711
C            8.53084258528485       -3.72140851274434        0.73409381964183
Cl          10.20584041644158       -3.72255816473669        1.18063654851507
C            7.94596927803188       -4.87148671715321        0.23715020307221
C            6.61367885502108       -4.87283766609879       -0.11232114353551
C            5.83205441570023       -3.72727536873829        0.02541367468209
O            4.49385135819370       -3.74595038973705       -0.33144410738210
C            1.74814531481774       -1.18797898067825       -0.24796854084490
C            0.41238189372421       -1.16961356858999       -0.56486794446640
H           -0.27909722919572        2.03939782304159        0.19436349565381
H            2.12049133400762        2.00689714703067        0.76368453857025
H            4.22172699813339        0.72689787578599        0.88204965864229
H            6.17828611465244       -0.46996353759551        1.08875962993967
H            8.25761964836319       -1.68887123206750        1.26783043738400
H            8.54677090777167       -5.75861007507747        0.13021361683390
H            6.16130804771254       -5.76834511435349       -0.49904034203194
H            4.24476423568218       -4.63759169924687       -0.65860605173697
H            2.33976669084207       -2.08065260399063       -0.36209385707664
H           -0.07366682475210       -2.05529461010934       -0.93718509671218
