47
 energy: -5.153172081676 gnorm: 1.823562928938 xtb: 6.5.0 (97a52f5)
O            2.27463000000000       -1.86303000000000       -0.52624000000000
N            3.29787000000000       -1.25407000000000       -0.42941000000000
O            3.96977000000000       -1.01883000000000       -1.53328000000000
C            3.61084000000000       -0.57845000000000        0.80425000000000
C            2.64347000000000       -0.62757000000000        1.83571000000000
C            2.79678000000000        0.07332000000000        3.02262000000000
C            3.89282000000000        0.88798000000000        3.20511000000000
C            4.88744000000000        0.98464000000000        2.20979000000000
C            4.79580000000000        0.20981000000000        1.01722000000000
C            5.86965000000000        0.33388000000000        0.08182000000000
C            6.92103000000000        1.24197000000000        0.28210000000000
C            6.86255000000000        2.05063000000000        1.40383000000000
N            5.88680000000000        1.90000000000000        2.32076000000000
B            5.96128000000000        3.09752000000000        3.28306000000000
F            4.63491000000000        3.65265000000000        3.42402000000000
F            6.52389000000000        2.67657000000000        4.56340000000000
N            6.94296000000000        4.03646000000000        2.54593000000000
C            7.55840000000000        3.31053000000000        1.61772000000000
C            8.51483000000000        4.01518000000000        0.91762000000000
C            8.31709000000000        5.32413000000000        1.34453000000000
C            8.88701000000000        6.50796000000000        0.87150000000000
C            9.99108000000000        6.48895000000000       -0.00145000000000
C           10.53338000000000        7.68064000000000       -0.47466000000000
C            9.96770000000000        8.89527000000000       -0.10617000000000
C            8.86084000000000        8.93700000000000        0.74081000000000
C            8.29761000000000        7.74730000000000        1.26497000000000
C            7.14324000000000        7.74889000000000        2.12474000000000
C            6.41121000000000        8.93089000000000        2.40172000000000
C            5.25422000000000        8.89902000000000        3.17600000000000
C            4.82247000000000        7.70883000000000        3.73862000000000
C            5.53143000000000        6.53562000000000        3.51274000000000
C            6.66882000000000        6.51805000000000        2.68686000000000
C            7.29124000000000        5.31890000000000        2.28148000000000
H            1.73283000000000       -1.19902000000000        1.72167000000000
H            2.03966000000000        0.01787000000000        3.79231000000000
H            3.95899000000000        1.45361000000000        4.12680000000000
H            5.91668000000000       -0.21034000000000       -0.84205000000000
H            7.67429000000000        1.39137000000000       -0.48307000000000
H            9.12629000000000        3.67091000000000        0.09485000000000
H           10.45083000000000        5.55531000000000       -0.30588000000000
H           11.39292000000000        7.66264000000000       -1.13105000000000
H           10.38813000000000        9.82090000000000       -0.48241000000000
H            8.47971000000000        9.91567000000000        0.97594000000000
H            6.67253000000000        9.88859000000000        1.99073000000000
H            4.68277000000000        9.80344000000000        3.33548000000000
H            3.91909000000000        7.68719000000000        4.33733000000000
H            5.13907000000000        5.66351000000000        3.96778000000000
