24
 energy: -4.954369599490 gnorm: 0.000557949693 xtb: 6.6.1 (8d0f1dd)
B            2.85568711666164       -1.54854536472346       -0.00056459188518
C            3.58103374001020       -0.25259126142594       -0.00097404055974
C            2.82684664075910        0.86556168615778       -0.00120948591962
C            1.41259319943342        0.83922658547439       -0.00106632290623
C            0.67826280950866        2.06030218538511       -0.00131042498574
C           -0.67223942270430        2.06951246284391       -0.00112585922062
C           -1.41479987788260        0.85359196707392       -0.00068262325325
C           -2.82068962641231        0.86191581790509       -0.00045228117823
C           -3.52636450341839       -0.30794501958825       -0.00002275024551
C           -2.85516017704021       -1.52715206062557        0.00018838585047
C           -1.48751709015625       -1.56451344032179       -0.00002763072280
C           -0.72810093285851       -0.38157494935140       -0.00046072480800
C            0.71658376940087       -0.38434193361574       -0.00065959668945
N            1.43399124378089       -1.54052439840961       -0.00043050693066
H            3.43866820961870       -2.56710309533496       -0.00033730122058
H            4.65398328659811       -0.23273632801238       -0.00106570046069
H            3.31255403396089        1.82702939683428       -0.00151318722192
H            1.22387694292676        2.98834095094372       -0.00164044841004
H           -1.20915755641572        3.00246923026131       -0.00130087360667
H           -3.33667216780447        1.80673322767610       -0.00061484291129
H           -4.60402682621747       -0.28898711074932        0.00015626246361
H           -3.41849245657753       -2.44614091633533        0.00052338597162
H           -0.99032503001453       -2.51707088631012        0.00014232627644
H            0.94200467484303       -2.42500674575174       -0.00014116742593
