37
 energy: -7.317754729915 gnorm: 0.000709635737 xtb: 6.6.1 (8d0f1dd)
C            1.17978098945484        0.40743506767955        0.23200616523828
C            2.60777785229951        0.07940207028546        0.08292607906265
N            3.09312796388172       -1.02748374112766       -0.51371846268911
C            4.49303109482200       -1.06079878404364       -0.50611859269758
C            5.25549370183133       -2.09438974965443       -1.08283471905146
C            6.72803584391790       -2.09106241132327       -1.05107968368780
C            7.47201171805296       -2.39283350316508       -2.19441827318166
C            8.84753991474943       -2.38977368351928       -2.16317346049353
C            9.51358948376199       -2.08667369455933       -0.99254875179825
C            8.79787111286243       -1.78577723848084        0.14903924487082
C            7.42218093966122       -1.78707447497156        0.12256694750852
C            4.52392282897622       -3.13005388639815       -1.69371718604613
C            4.94077542774540       -4.32335851690871       -2.31939748289023
C            3.80639849773901       -5.01190813998788       -2.73360458292031
C            2.67021459152925       -4.27211495051084       -2.37119726995125
C            1.24671984304018       -4.58893426715043       -2.58053541406033
N            3.12569865001082       -3.16582318795037       -1.75273276986677
B            2.21259982419378       -2.09662500460661       -1.15755866149241
F            1.40223889777926       -2.67237937727801       -0.18401998447539
F            1.45648878425491       -1.51953700614963       -2.17302753399772
C            4.87780659022169        0.13284191299395        0.13889765714848
C            3.72390899392133        0.81961111652687        0.49897250715991
H            0.56870078898340       -0.37922191787337       -0.21336107488048
H            0.94083664500676        1.34629007322411       -0.26781508365755
H            0.90718979478690        0.49456087949509        1.28390240491149
H            6.95285831296180       -2.60675538551251       -3.11246632248770
H            9.40606087769733       -2.62127651332357       -3.05519547474143
H           10.59096822123067       -2.08500215122971       -0.96990060424176
H            9.31762865170270       -1.55282749347437        1.06379788088339
H            6.86412505854639       -1.57609566386021        1.01816119852798
H            5.95974205130504       -4.65176798511825       -2.43062116148058
H            3.79240988016880       -5.96151363967299       -3.24181345233753
H            1.12092829471460       -5.53533735779995       -3.10671207331030
H            0.76708632221512       -3.80126378131654       -3.16247540934722
H            0.73016340348832       -4.65231221218839       -1.62226158701483
H            5.88977299634900        0.46347488990143        0.29695455304623
H            3.68336515613602        1.76961970904900        1.00505043444132
