78
 energy: -15.352157621493 gnorm: 0.000780689945 xtb: 6.6.1 (8d0f1dd)
C            0.79366475965615        1.00398378983106       -1.01940862829399
C            2.15906188839964        0.67011517364942       -0.58173629411389
N            2.92483331631138        1.47164680745709        0.14294891481769
C            4.19176744410744        0.91105039148407        0.43082796204912
C            5.19177944883273        1.57121840262066        1.19184840402614
C            6.52076342214476        0.96568533690990        1.42666918435718
C            6.92791122024832        0.67667399994035        2.73141198118702
C            8.14681566797421        0.09276811251389        2.98132870787717
C            8.98964924692400       -0.21453915697584        1.93446740769637
C            8.61286762264123        0.07349059444208        0.63842959983413
C            7.39552580351933        0.66985371644254        0.36165269133458
C            7.04021228103524        0.99177546491043       -1.04859659025405
C            4.84313037036837        2.81667245821753        1.71018376383467
C            5.57474697777998        3.73110547293233        2.51240749170756
C            4.77439379288847        4.82778953325669        2.73979278639138
C            3.53349473445647        4.63400886749940        2.08594401928865
C            2.36901437988622        5.53544822629261        2.04862734408787
N            3.60667644393802        3.44154920031930        1.49132110391697
B            2.48574947702589        2.85067117365362        0.63541446397329
F            2.26345624971624        3.67722087382996       -0.46148524500906
F            1.33818128702897        2.71786560190469        1.41080838487761
C            4.18884761134477       -0.33757940516869       -0.15506557770740
C            2.93568016185047       -0.52120617786370       -0.80694656268603
C            2.56713109753643       -1.67797955230846       -1.53633411048956
C            1.34856144195064       -1.91307648308280       -2.23759082777985
C            1.42410210999033       -3.16429612656011       -2.81562202364203
N            2.68966681035276       -3.68230140308591       -2.45056037778645
C            3.38155332015134       -2.84088372870641       -1.70826927340607
B            3.17982309449237       -5.06807703759260       -2.87408807581636
F            3.41282577351409       -5.83304557939716       -1.73497647128158
F            4.32649254377095       -4.92288691504968       -3.64942809455495
N            2.09124334909489       -5.74205812389380       -3.71403657531500
C            2.19789740474657       -6.95718781682996       -4.24246070614807
C            1.00437760537991       -7.19638342080642       -4.95508937073887
C            0.18926900892849       -6.09283130775197       -4.83807334884483
C            0.86624029122076       -5.13726502003813       -4.03508062016995
C            0.48682637711864       -3.86431132088155       -3.61662514201528
C           -0.81180394924040       -3.25818493117267       -3.99567976209751
C           -2.00639516440643       -3.69611646693653       -3.39356821334894
C           -1.99261910840370       -4.78367353007145       -2.37649003493604
C           -3.20414356911749       -3.11450522883404       -3.76420462747286
C           -3.25939418107224       -2.09708634742140       -4.70367579232452
C           -4.55534343697017       -1.45811007192775       -5.06156331681815
C           -2.07629374274583       -1.65750078714848       -5.27522007763640
C           -0.85871004559121       -2.22461226135081       -4.95040616052140
C            0.38841709492847       -1.72319813849778       -5.59167925822067
H            0.50922419630648        1.98230146696750       -0.62917398270179
H            0.07350343613282        0.27480961732800       -0.64807695192602
H            0.72940662575613        1.04634839727328       -2.10671401260008
H            6.25987518956335        0.90548992117657        3.54377527237054
H            8.44105230839391       -0.12946762361662        3.99392671583650
H            9.94379805713822       -0.67654914839461        2.12806154248843
H            9.27517122161249       -0.16185067584776       -0.17709083417197
H            7.90403336179070        1.37886501676481       -1.58969526437087
H            6.25686328995793        1.74833923497029       -1.09867718747441
H            6.68620930183201        0.10454128934955       -1.57376358491053
H            6.57932109090328        3.58466143724814        2.87061472782864
H            5.04124321480050        5.69810107159091        3.31589192191942
H            2.64941650249679        6.52205197682985        1.67890308729193
H            1.93281015706802        5.64844465323246        3.04130673550907
H            1.60391000533973        5.12794017692395        1.38603820997445
H            4.99195829046022       -1.05088704384630       -0.11272077462377
H            0.50993303567233       -1.24679806128793       -2.31653119019367
H            4.36681262081717       -3.02996345400790       -1.32038268587388
H            3.05304025043749       -7.60287807224045       -4.12995851556885
H            0.77352731573993       -8.09449779981214       -5.50513637805348
H           -0.78559599496141       -5.96355796957729       -5.27646402787662
H           -1.05746914911546       -4.78648212674333       -1.81556627161692
H           -2.10314735795530       -5.75939988037269       -2.85020914400007
H           -2.80533819379610       -4.66279576728518       -1.65961551559235
H           -4.11584827686181       -3.45492861103101       -3.30647042470933
H           -5.39251322456394       -2.13138211709279       -4.87446939968939
H           -4.57954594436631       -1.18581249426436       -6.11735782686771
H           -4.71475923789066       -0.55210387226677       -4.47594795703047
H           -2.10762731909815       -0.85674119543439       -5.99253227825821
H            0.19058053984969       -1.34129320422489       -6.59364047185165
H            1.13070525872293       -2.51686835088696       -5.68279972920022
H            0.82958169408984       -0.91714365015911       -5.00478685587781
