101
 energy: -20.181183729600 gnorm: 0.000903303425 xtb: 6.6.1 (8d0f1dd)
C            3.73918604407060        2.12909476095882       -0.82941110372179
C            4.66384974347576        3.21782121618429       -0.47796942474172
N            4.65630382803791        3.84399057709412        0.66335750866669
C            5.61812977847004        4.86127770573656        0.83449085308501
C            5.75791839159177        5.56887625333492        1.96828802407115
C            4.89410797110422        5.29636652904001        3.05354288556223
C            4.77260711464404        5.85599787977731        4.35811224478922
C            3.67325859926908        5.23462228684357        4.96702651572213
C            3.12441987692168        4.28915023436010        4.07909953538509
N            3.87801478590165        4.35765710647296        2.97396878786666
B            3.65374223263879        3.46853441802377        1.75224678520738
F            2.36745671457683        3.67285227972402        1.27010025841147
F            3.86233652924347        2.14371553320243        2.11525328490237
C            3.50625873000566        5.83750728168481        6.26882041445824
N            4.44615646581448        6.81638623465372        6.42502341001817
C            5.26991747735260        6.81450504755850        5.33103415501536
C            6.49199240335942        7.51651080370672        5.17291025065501
C            7.48852266585095        7.04778592918342        4.18453192418579
C            7.94194272000724        5.72567579221388        4.20102972072482
C            8.87768185166473        5.29068886593499        3.29198286098273
C            9.38352897223831        6.16110886244190        2.34760156131645
C            8.95274499792290        7.47215279844496        2.31657521091412
C            8.01973723230014        7.91430546806462        3.22497964913851
C            6.82859843881575        8.64803879751888        5.97005441134016
C            8.08161349947635        9.31325888600241        6.00624447456091
C            7.99575248630745       10.34634365852910        6.89084384974826
C            6.67563340811778       10.37309720317487        7.40887187282048
N            6.00495333464786        9.31005810162418        6.83581447118626
C            6.13314407931860       11.18911620706276        8.45276784187421
C            6.99085643061972       11.96876487523659        9.36221152170359
C            8.03342257333734       12.77019176279075        8.89086977443966
C            8.82405895101590       13.48386708194056        9.76194337980169
C            8.58970238679303       13.42504566663643       11.12085888920631
C            7.54891542290286       12.66084966641709       11.60690248291083
C            6.75588817050874       11.95021672090660       10.73819031526086
C            4.74570204952156       10.98695887736437        8.76841506299910
N            4.30243431011946       10.57140281180990        9.98462861285448
C            3.14015032587727        9.90958428661528        9.76310539510364
C            2.63018266570499        8.88448367286795       10.61794716049354
C            2.75221754066591        9.00676991023506       12.07088722932359
C            2.94921739232047       10.26005249645112       12.65342245443876
C            3.06750554655200       10.39909696204033       14.01650215027928
C            3.00403298521423        9.28834187861690       14.83247996671126
C            2.82951836355564        8.03698246481377       14.27771637845675
C            2.70781160967635        7.89550074757288       12.91479615250277
C            2.23499492631751        7.67052370868563        9.96491930264172
C            1.34252480620895        6.64772945437606       10.37901834536773
C            1.32942633990448        5.68861881772685        9.40862395122150
C            2.22676586820256        6.08086574869492        8.37989772611459
N            2.75407757628111        7.28243275448488        8.74903807470132
C            2.51939922821306        5.38554706452485        7.17590097145468
C            1.74950878933979        4.15791997753649        6.86246315756317
C            0.36269555468769        4.20000032218803        6.69751694104773
C           -0.34111208335079        3.06723108479983        6.36299792804169
C            0.31772549474238        1.86683810196137        6.19028089224731
C            1.68550499686878        1.80064538481600        6.36065186230700
C            2.39494796016821        2.92936942462358        6.69612241640767
C            2.75114707846253       10.05538133412969        8.38239569281859
C            3.73906684481673       10.72132024306072        7.76956890163042
C            6.39860528010864        4.93493432014772       -0.45906500743661
C            6.30358233240487        6.30902250070076       -1.11330962909983
C            5.75672697477019        3.80570021153119       -1.32756520822179
H            2.70872048718021        2.48554879431651       -0.80117097167655
H            3.82481007340566        1.31493362866429       -0.10844503553320
H            3.94478038429338        1.73475203949649       -1.82469862885524
H            6.51669712075743        6.32001297189154        2.05266406686717
H            2.28397768047857        3.63418871639007        4.22397371848420
H            7.54635419340421        5.05007580135989        4.93964917579211
H            9.21571177805957        4.26785334142405        3.31659848509006
H           10.11775780122163        5.81809443071632        1.63740546470926
H            9.35114637734291        8.15122971202605        1.58093331077788
H            7.67653594302488        8.93408109767846        3.19787087811425
H            8.96199425738665        9.01909282299200        5.46005640812024
H            8.80793789247395       10.99246716562435        7.17365088180727
H            5.07639710117447        8.96164550517679        7.08863696606373
H            8.18475661361814       12.86508220857130        7.83023966379204
H            9.62449713187058       14.09714629902441        9.38185320824319
H            9.21170678967181       13.98428534361466       11.80039630409117
H            7.35604861254138       12.62461127651505       12.66644059970158
H            5.93544561710512       11.36528465687121       11.11128517129864
H            3.01469433557804       11.12392181995325       12.01528543947750
H            3.21226045974633       11.37599776287669       14.44764537410339
H            3.09665678252018        9.39701759213647       15.90064228612234
H            2.79207783947882        7.16817945680032       14.91420306397037
H            2.60637191808770        6.91403147598464       12.48852736963320
H            0.74146425026347        6.65663516026398       11.27264878290944
H            0.74605529112119        4.78330825326216        9.41721334208423
H            3.50144302096398        7.74969692617556        8.22815579951862
H           -0.14626194986875        5.14097634740984        6.81526728100458
H           -1.40903835185544        3.11725362127648        6.22868157738356
H           -0.23571370352922        0.98203240044544        5.92188389504959
H            2.19943837938179        0.86355892491741        6.22285325692634
H            3.46279795745627        2.88284752665534        6.82388615686681
H            1.86525970536803        9.64649163291306        7.92449920167569
H            3.80475466414729       10.96045467663223        6.72062310247311
H            7.45092218197999        4.69276571590571       -0.24093403820795
H            6.72535767760041        7.08486770530586       -0.47390108214556
H            6.83033950724293        6.33387620412783       -2.06756475811268
H            5.26201581387917        6.56922345090955       -1.30074750984429
H            6.48325689611866        3.03458052995516       -1.60531093452323
H            5.33800640361466        4.21284994885209       -2.25280275274123
