65
 energy: -12.724439367230 gnorm: 0.000865819137 xtb: 6.6.1 (8d0f1dd)
C            0.82477385552092       -1.15436634553457        0.99744479862519
C            1.92964047632453       -0.60382338978685        0.19541767817200
N            2.64818087070561       -1.31250938195428       -0.66037849120772
C            3.64818369291461       -0.54679961521125       -1.30622897343647
C            4.53058629058444       -1.08259955812648       -2.25072749498166
C            4.41073578229534       -2.41219255747080       -2.56045119626630
C            5.13676252345097       -3.24311142679844       -3.46415594207638
C            4.60285777185024       -4.50472818531490       -3.39293635450294
C            3.53872374028070       -4.50656468476317       -2.45032511319093
C            2.65691663655884       -5.62235802161261       -2.06760635020643
N            3.45066235303043       -3.26358429158294       -1.98450734345404
B            2.42845148642006       -2.80057245845997       -0.94396124244088
F            2.61486722021271       -3.52121369409195        0.23107731851956
F            1.14621418468417       -2.98317642921700       -1.45042649294043
C            3.52557635924154        0.73388136263558       -0.79822702432195
C            2.46097919152544        0.73552316528730        0.14514170139473
C            2.03018607409626        1.86676826612440        0.88387557152185
C            0.98074944558950        1.92501275850672        1.84618593426913
C            0.90533793737697        3.21975453458881        2.31886501066965
N            1.91046399477610        3.94024892657370        1.63060809895536
C            2.58475457811519        3.18088672052664        0.78885885416013
B            2.15534112847040        5.43518192291213        1.84276779355785
F            1.95188337814340        6.10114498925796        0.63863701237557
F            3.44644804823931        5.61566887297509        2.32837017556649
N            1.15723859551221        5.96170593198795        2.87755409896230
C            1.09890953615397        7.22474393522086        3.28923541037572
C            0.06984668248793        7.29123742591715        4.25060981485771
C           -0.48022238212321        6.03733508174524        4.39908569989843
C            0.20149385094476        5.15786035393263        3.51778981899057
C            0.03344686953506        3.79659748398055        3.27604567893362
C           -0.99282366280694        2.98634378251941        3.97368397872210
C           -2.35542295459715        3.13130837790586        3.65122220338493
C           -2.79538357153742        4.11210226306500        2.62077945113166
C           -3.29314993825367        2.35872021296281        4.30970691157846
C           -2.92566481315129        1.42798490308374        5.26865240083258
C           -3.94366004727411        0.58312710308877        5.95089830752986
C           -1.58144800542955        1.28157484251378        5.56880414028913
C           -0.61139318560462        2.04753155662143        4.95107567012429
C            0.82173837656803        1.85565763613414        5.30718048393049
H            0.68935455775769       -2.21134430726355        0.76339993633265
H           -0.11198597581658       -0.64160109191103        0.77918603354182
H            1.03560518219415       -1.07293326424026        2.06378902482398
H            5.27826363936057       -0.47008284081850       -2.71795775406623
H            5.95540860902202       -2.92627616174453       -4.08729446604477
H            4.92857894773744       -5.36158103512457       -3.95879153309446
H            3.23434582054704       -6.51700588395922       -1.83446301470390
H            1.96024627225653       -5.85874542342205       -2.87191510612649
H            2.07482976770082       -5.35125190155913       -1.18570007496926
H            4.13498767793414        1.57698691819236       -1.06941247522052
H            0.34418781206253        1.11922467860517        2.16035443760019
H            3.38911228381619        3.52333022517464        0.16202840999100
H            1.73815370321585        8.01686301010190        2.93568420045044
H           -0.23252301219643        8.17834316762773        4.78357119390576
H           -1.28316202718511        5.76183984228998        5.06133656714089
H           -2.02720348409913        4.25605990221962        1.86042798370450
H           -3.00706506054342        5.08137144700072        3.07265308533018
H           -3.69929653939510        3.77224742068395        2.11461123663254
H           -4.33365984370378        2.47734916323843        4.06547462076796
H           -4.95617973437536        0.91177057843519        5.71509647510502
H           -3.82341429781445        0.62774236893420        7.03377823412289
H           -3.85022920933194       -0.45903798739041        5.64397606267240
H           -1.28686171628118        0.55445751313824        6.30444547582712
H            0.93149178915013        1.55612033498454        6.34975174310058
H            1.38916040157679        2.77637678586587        5.16836172852541
H            1.27655206558554        1.08424417078990        4.68534597634835
