47
 energy: -9.909787956999 gnorm: 0.000531763816 xtb: 6.6.1 (8d0f1dd)
C            3.35147276252836        2.64393714822430       -0.20874536625105
C            3.47995015091697        1.21037135236214        0.10442881947212
N            4.46085034518763        0.39925997289107       -0.32927641496697
C            4.31852365524702       -0.90589084552035        0.14861079219496
C            5.28974913095314       -1.91278050659435       -0.11321845929289
C            5.27468857498605       -3.31785900882140        0.24909450740372
C            4.06464292709252       -4.05252491817047        0.50396215512335
C            2.79145362473538       -3.58251297375035        0.12356691933253
C            1.65585783827296       -4.28622239047032        0.40496658769554
C            1.73018739405477       -5.51532755778267        1.06428580733777
C            2.94194034328198       -6.04544934092775        1.38632700175413
C            4.14053726353189       -5.35478829651449        1.07972142139225
C            5.38566511378580       -5.95877118245000        1.26863523423533
C            6.56387785561727       -5.34411730228560        0.84742830898110
C            7.80454195925757       -6.01530155241165        0.92746883060150
C            8.95659996817781       -5.43311323414989        0.46700171593881
C            8.93182683263259       -4.16519681241431       -0.08585798605962
C            7.74214952369389       -3.44616084167773       -0.17282170500221
C            7.68907839124811       -2.13120414770431       -0.72294894831564
C            8.66116812302774       -1.24925253533373       -1.28154110855212
C            8.05188760330743       -0.03194822899659       -1.53632510660455
C            8.64744672271302        1.18518320226056       -2.11329812352320
N            6.74522221567749       -0.15443631907423       -1.14981033328277
C            6.47796769721911       -1.41845874345519       -0.66603563489935
B            5.64114357791057        0.90351540959855       -1.17457444456162
F            6.13387086761156        2.07931762089574       -0.61664428475874
F            5.21240847397206        1.09750350234327       -2.48298254218922
C            6.51616472730425       -4.02189593672282        0.30796320718773
C            3.18670723309215       -0.85645427123805        0.98863523944640
C            2.67115664582615        0.42990466885424        0.94484332008871
H            4.02240707670209        2.90816880779579       -1.02732454244088
H            3.61830029026417        3.25382440860573        0.65439818913629
H            2.33270030391469        2.89156179351920       -0.50728274494779
H            2.72272601750614       -2.67176739814808       -0.44366484302040
H            0.69523193591546       -3.89715740006379        0.10972967051396
H            0.82596973738560       -6.05549356217743        1.29178075532349
H            3.00383230363096       -7.01137217821402        1.85711867896858
H            5.42992525381673       -6.94950057844774        1.68283508536266
H            7.83155859627143       -7.00644996912698        1.34586574755713
H            9.88980155039864       -5.96813169598476        0.53132020334468
H            9.84044266178334       -3.71714748381525       -0.44771894998365
H            9.69607477580729       -1.48130562241753       -1.46075572005742
H            9.56698395167475        1.45542029008652       -1.59393380369258
H            7.94958624684014        2.01904825565131       -2.02634252536706
H            8.87578363126978        1.04329858185542       -3.16969422281057
H            2.83009508239143       -1.65481107129275        1.61677595806101
H            1.81201304157025        0.78866889121424        1.48689365412733
