40
 energy: -8.239114917788 gnorm: 0.000900357199 xtb: 6.6.1 (8d0f1dd)
C            1.24689393590447        0.34539465265209       -0.49002451123832
C            2.66232956021285        0.12682830086611       -0.11480323154603
O            3.23719573051809        1.01136883393203        0.70329384967658
B            4.70852258337153        0.98693718680846        0.73594056935629
O            5.24396021351955        1.76179469317561        1.85720426647862
C            6.01554286894655        2.73402819600714        1.33689869180576
O            6.65290388530378        3.57194596394034        1.93436683384236
C            5.98296565405359        2.63181964583409       -0.16645388859195
O            6.58054982133906        3.38238152778509       -0.90434860490100
O            5.20077805389811        1.59464708103477       -0.51237694012811
O            5.20172500743873       -0.39855399583629        0.77902314394183
C            4.64473897260629       -1.24599170400904       -0.09963681503618
C            5.37414370044917       -2.45390506221779       -0.47992568142447
C            5.32569783622290       -2.96911008952055       -1.81020760633971
C            4.75615434418848       -2.24630149806705       -2.87790273548406
C            4.72052141689284       -2.75678758475715       -4.14259901035684
C            5.26158521530272       -4.01320662584150       -4.41430400356777
C            5.86084071760793       -4.73090214895205       -3.42460631419655
C            5.93523270824975       -4.22570178754939       -2.10610670171041
C            6.62359209596793       -4.91317279938547       -1.10784774845782
C            6.76517319832917       -4.38648258221221        0.17454125738114
C            7.50146932159981       -5.06661014484957        1.17184875430031
C            7.63994150707050       -4.53962974464653        2.41996902992651
C            7.05602094911120       -3.31240988631455        2.73448324332518
C            6.33588686628514       -2.63175239883755        1.79752127342587
C            6.15837983384202       -3.13567250723559        0.49518449532713
C            3.35208157234608       -0.96843158276834       -0.57589288480235
H            0.94517140474490        1.35497351322844       -0.21121673239959
H            0.59597982420706       -0.35913326381431        0.02698293791713
H            1.10221573823834        0.23205229978262       -1.56440214198970
H            4.39627910726736       -1.24864425538552       -2.70002689465312
H            4.28478593185738       -2.18010768085940       -4.94171320035667
H            5.22256483375145       -4.40539977494799       -5.41717059072325
H            6.30279993051999       -5.68780362119331       -3.64076712757998
H            7.08501421436179       -5.85487273003767       -1.34190161899927
H            7.95747519609504       -6.01036949947266        0.92875766812196
H            8.20786410673580       -5.06744500424703        3.16832291432380
H            7.18271773030910       -2.89707572982094        3.72074833792378
H            5.91478522759006       -1.67234662985693        2.03980078412405
H            2.85248918374013       -1.67958156241131       -1.20696306671864
