90
 energy: -18.942248201348 gnorm: 0.000985429212 xtb: 6.6.1 (8d0f1dd)
C            1.26009396393056       -1.94257370087450        2.59348363219039
C            2.32021713275221       -2.24736778226099        1.69848596019753
C            2.63397315596930       -2.72814037075014        0.46301327643700
C            4.01524412696541       -2.82923075956020        0.03119099045892
C            4.43292282114667       -3.37556612602224       -1.23842510412164
C            3.78184522883761       -3.88384262931771       -2.34792458162200
C            4.53078377869888       -4.38537473321109       -3.41664013513541
C            5.90874640352976       -4.40260234449882       -3.40081817225106
C            6.61787667580251       -3.90152936735247       -2.28479231397187
C            8.01678037081347       -3.85573648780787       -2.08493193377631
C            8.53802901649966       -3.34731121893477       -0.91568790103323
C            7.72256926254726       -2.86193424837308        0.11724106147078
C            6.35363570983566       -2.88787103788254       -0.04571701975119
C            5.19338809952118       -2.51931128198512        0.77841060293463
C            5.27385217278662       -2.01878134778461        2.02538082063965
C            5.95128768652919       -1.55332874001045        3.18500618139449
N            1.66298361014213       -3.17272271401526       -0.34810598745395
B            0.91829483452227       -2.64202305015438       -1.51843245483492
F            1.75866993663260       -2.17450969585694       -2.68325397967330
F            0.80413962124728       -3.64514144003814       -2.63005845677234
N           -0.68064322379879       -2.32738208805350       -1.13541670643112
C           -1.86437392762487       -2.95403551497615       -0.97956554842205
C           -3.08886991038107       -2.13152418294874       -1.01480445087483
C           -1.93721392022341       -4.36810659126286       -0.88876066793539
C           -0.79786691795884       -5.16007640353449       -0.68839044920340
C           -0.88744802729331       -6.55353686353429       -0.59314250551699
C            0.27584989178599       -7.35863393053752       -0.32794253622481
C            1.60507972182689       -6.76521983200882       -0.04284558540622
C            2.66795333135981       -6.92899059032516       -0.93406537553370
C            3.93993354121721       -6.53226102265496       -0.59048072178342
C            4.17588255218710       -5.94984392912652        0.63839999553357
C            3.13218607197449       -5.74739295229805        1.51851977018894
C            1.85925949547887       -6.14881927337167        1.18426172280159
C            0.11256779191082       -8.74027446668116       -0.28095529393373
C           -1.15632883622379       -9.35796675441522       -0.48877585812687
C           -2.30603864900234       -8.60846046754765       -0.71104008668257
C           -3.62646073149802       -9.26348918754647       -0.87513343912406
C           -4.27217047832048       -9.27393178125932       -2.11215896911929
C           -5.49092807206425       -9.89515761311832       -2.26260895390485
C           -6.09037942117638      -10.51556140980182       -1.18475084907852
C           -5.46894408756219      -10.51072972334642        0.04801744623829
C           -4.25070168243271       -9.89008623446990        0.20442012058651
C           -2.16962103840441       -7.18659566514228       -0.75219794416682
C           -3.29966699749417       -6.36422921292703       -0.93002693060865
C           -3.14117864048788       -5.04587214655514       -0.97716242732500
C            0.02753337870721       -1.23557577483828       -1.22689434323964
C           -0.97974538752350      -10.80769213223555       -0.39686503033616
C           -1.79271395288603      -11.91195272143785       -0.53494077067036
C           -1.24180619457145      -13.19143612155842       -0.36728104998203
C            0.08712645615119      -13.38285157427561       -0.06794453562748
C            0.95680830716725      -12.27691350502949        0.07809223346088
C            2.33798686761911      -12.28913178099404        0.38201006900417
C            3.03864697626788      -11.11064240552951        0.48852423476969
C            2.43062192759556       -9.86038866187446        0.29793570389259
C            1.08756612648869       -9.80259671724074       -0.00645943432172
C            0.38068495021923      -11.01756710206231       -0.09981210709165
C            5.83814019927361       -3.40017013259274       -1.24031049065810
H            0.65082206049425       -2.82894491845876        2.79487913255285
H            0.60423370186237       -1.17499836228504        2.17061860697677
H            1.64489532605555       -1.57083562663263        3.54790212518246
H            2.70789864395606       -3.87102109104461       -2.37907300923956
H            4.00935965062519       -4.76736402195554       -4.27864215889770
H            6.46062427862025       -4.79650989527632       -4.23577640492902
H            8.66592557031731       -4.22699543496052       -2.85831083099092
H            9.60731087087507       -3.32359225233392       -0.78600768292889
H            8.14584040390855       -2.47676536031924        1.02765303837420
H            5.23936251608068       -1.23771982333684        3.95388420689439
H            6.59081891921611       -0.69681583822442        2.95034986370108
H            6.58318698148250       -2.33642874992108        3.61528318418195
H           -2.84248839333262       -1.07346152786786       -0.92285134673000
H           -3.76105925656020       -2.39771511281441       -0.19870842709367
H           -3.62064544313235       -2.27470819676871       -1.95573075860382
H            0.15707962545735       -4.67668612840986       -0.59344911554674
H            2.48119479055254       -7.39785138771952       -1.88478165969732
H            4.75245347435918       -6.66705946603475       -1.28532050429205
H            5.16973501848374       -5.62459017259461        0.89847276387330
H            3.31362428323410       -5.26451481128884        2.46465311720313
H            1.04646352783881       -6.01316827464099        1.87660437185616
H           -3.79754396844370       -8.79366879912769       -2.95037459355932
H           -5.97767025992225       -9.89806461173645       -3.22408456398336
H           -7.04438720011323      -11.00204475376718       -1.30530604471035
H           -5.93860156956958      -10.99315836707457        0.88942232291629
H           -3.76124058889753       -9.88321316451694        1.16305515900020
H           -4.28040622209021       -6.80170339060607       -1.02597684413484
H           -2.83352211923992      -11.78504380812700       -0.76917601035364
H           -1.88396492453640      -14.04965698845777       -0.47588038228922
H            0.48234001424492      -14.37558970910373        0.05684515085543
H            2.83018549316112      -13.23426758878602        0.52962866606634
H            4.08946893706688      -11.14457303751189        0.72401832357527
H            2.99934476079069       -8.95427379054523        0.39032758428370
