66
 energy: -13.446490557497 gnorm: 0.000628373698 xtb: 6.6.1 (8d0f1dd)
C            2.15704106090872       -0.48487777661081       -1.28863085208288
C            2.00878313911960        0.12947638348343        0.04807759598682
C            3.06293395892939        0.48672273256635        0.94480458078740
C            4.45168246280664        0.39029563524383        0.84468443303892
C            5.20715900287884        0.85048743225017        1.92243412711809
C            4.58190976269433        1.40260956672658        3.09527653546026
C            3.20166012423341        1.49937901858966        3.20370511453747
C            2.45989354704211        1.04006280023371        2.12655083990484
N            1.10973373888966        0.99425760965685        1.91125243692939
C            0.79670395371850        0.45429443814277        0.67717619809287
C           -0.53462410849575        0.34873701023249        0.20185709279474
C           -1.55616847218428        0.79525550651981        0.97538773139030
C           -2.94412519511384        0.96811102311141        0.71107306495525
C           -3.71760852314368        0.67730048872854       -0.41321917178274
C           -5.05491221703252        0.98611451806965       -0.40040425343171
C           -5.65917791730450        1.59228440457255        0.72057505612020
C           -4.94082736869673        1.89847555180241        1.83441447338723
C           -3.54772510226188        1.59608656320959        1.85876658535939
C           -2.59594394842582        1.81024629682219        2.82478854842659
C           -2.73682302224046        2.38353519681737        4.16748521128847
N           -1.38839900611802        1.23609732857570        2.32390298152319
B            0.03072960970770        1.34272447755997        2.90068981907600
F           -0.75833442110660        0.16532505705101        3.31843160307435
F            0.31696657941467        2.36603912208597        3.77152901464267
C            5.63832228102845        1.78249092385303        3.98786127292550
C            5.60515363560224        2.36146874649272        5.24644163075120
C            6.80212737346132        2.62183628101829        5.86564899735616
C            7.10884855294644        3.21175692557963        7.14989647137562
C            6.30740338820589        3.70099188992745        8.17619569244152
C            6.91667561585399        4.21775323020948        9.29870739955111
C            8.30518852515674        4.25412283763314        9.41142912285543
C            9.11444826124809        3.77405436736148        8.40564572179712
C            8.51796875989065        3.24541434071971        7.26164868802254
C            9.07839550141490        2.67490382549705        6.05847808327122
C           10.49504233273248        2.51847062105937        5.69424025970513
N            8.04796471239170        2.33993284685173        5.29521952093952
B            8.20069642536539        1.70685147178131        3.91035361675558
F            8.87557285016611        0.49721595039022        4.03424820219660
F            8.88932495755949        2.58647462935040        3.08179522102474
N            6.81234177410806        1.44912576656058        3.32292320690941
C            6.62427331674434        0.90150363777780        2.12201798757683
C            7.69161603630286        0.47480081677048        1.20394746620462
H            3.19764145398185       -0.47654445765350       -1.61181560545992
H            1.57233977761532        0.05647822101235       -2.03283528894970
H            1.81626865155086       -1.52057452325267       -1.27765550085670
H            4.92335492299709       -0.01869625782543       -0.02828496917589
H            2.71914792540353        1.92167842115604        4.06441966113530
H           -0.72233394812544       -0.00959458101613       -0.79265469191433
H           -3.26020120059263        0.21837929385690       -1.27155966135437
H           -5.65788389204813        0.76312839883372       -1.26481210795875
H           -6.71235944885854        1.81743532145149        0.68972475997671
H           -5.39956310202363        2.36153237279484        2.68963891899551
H           -3.14747563907139        3.39240013335582        4.12117521485830
H           -1.76345732400279        2.43546811923543        4.65725063151825
H           -3.39320718843853        1.77039618653489        4.78524244775664
H            4.67182258160357        2.60082877116174        5.71976101480500
H            5.23636998611004        3.67107140474591        8.08306118858269
H            6.30984777331054        4.60094681954969       10.10233008486408
H            8.75303443303929        4.66500016916800       10.30108336916750
H           10.18643335576908        3.80081534854075        8.48818170097083
H           10.93993731725982        3.48257065993420        5.44777575810877
H           10.58525398378804        1.87240203690870        4.81983905160161
H           11.06352070907006        2.07152539066558        6.50984093572577
H            8.66377571345212        0.58296110550158        1.68712949650605
H            7.69356604442879        1.08406929850854        0.30005599966877
H            7.56752517538687       -0.56994714749412        0.91876026312126
