34
 energy: -6.433264684107 gnorm: 0.000855608405 xtb: 6.6.1 (8d0f1dd)
C            1.30862963619388        0.82728773413743       -0.67973296853794
C            2.30516272761248       -0.09295260254257        0.02642572521393
C            2.53435054345227       -1.40042448310800       -0.77322388668433
C            3.39741240670021       -1.19165211682964       -1.97256592957468
C            4.25527976054493       -0.17433303922878       -2.11882223131970
C            5.01906830500943       -0.04864580465454       -3.35326936592835
C            5.94867894643637        0.91401052853522       -3.63679620019318
C            6.52606043609286        0.80098345698512       -4.92209256219249
C            6.04828758712769       -0.25024003848295       -5.65724852715227
C            6.43695563631290       -0.60168420200817       -6.99899470659167
C            7.37044406855529        0.03658980680817       -7.76820444574303
C            7.53687464936252       -0.52755658257288       -9.05520776722462
C            6.73809188131492       -1.60484384049257       -9.29732625395664
C            6.67996710692290       -2.35429660723137      -10.46645952173402
N            6.63246959126115       -2.98364722786867      -11.44382839855864
S            5.76019521686041       -1.93445158795806       -7.89893530894168
S            4.86770202303042       -1.12353100004788       -4.71938034549204
C            4.42776981961391        0.87830864137705       -1.05155144025044
C            3.66670840082598        0.60619916101566        0.26055065350779
H            0.33921126773581        0.34432768872537       -0.80806581774786
H            1.67239157958464        1.09791395896085       -1.67047507033441
H            1.15202819330650        1.75118913447729       -0.12188322623612
H            1.88229266447593       -0.36066319482990        1.01201856306604
H            1.56660911544269       -1.81831216640861       -1.07709944351572
H            2.99932052933613       -2.15379471244917       -0.12549976647124
H            3.31087791335417       -1.89682869685297       -2.78196898812630
H            6.21670708033862        1.69608380734516       -2.94363094535286
H            7.27277256469714        1.48553181834705       -5.29275672025706
H            7.92798642671419        0.89430988214240       -7.42627209375686
H            8.22997626621020       -0.14389189751220       -9.78849022750006
H            4.11017367873167        1.84233035549890       -1.46673243540089
H            5.49894780562229        0.98910430689629       -0.84213543722843
H            3.50790286022718        1.54367104564354        0.80877631012030
H            4.28464331099431       -0.01765152581920        0.91779878009452
