72
 energy: -12.682990350440 gnorm: 0.000669712043 xtb: 6.6.1 (8d0f1dd)
C            1.01314578594372       -0.32143205345915       -0.11276398262674
C            2.51379248525356       -0.26972667436151       -0.40185511759433
C            3.03508548063337       -1.61755864274021       -0.98050046526002
C            2.58915528778324       -1.84526753767744       -2.43923366688002
C            2.92348028219232       -0.65643463008211       -3.29702132230282
C            3.65425413905437       -0.78168224926279       -4.40307695150945
S            4.13197306224081        0.57560921329473       -5.41800045919688
C            5.11605417463986       -0.29236140251752       -6.57888339175510
C            6.09592691937480        0.31096341107914       -7.25455850019497
C            6.96448982802568       -0.32572095375165       -8.23651486494721
C            8.08956687962419        0.35357606833993       -8.70798237167754
C            8.93371460545539       -0.22398938975072       -9.62631024415715
C            8.68752565438782       -1.50519437819448      -10.12119691756692
C            9.59932844043909       -2.12916048775780      -11.10447113772844
C           10.98172293588322       -1.96960036454848      -11.00249175010389
C           11.83003337302922       -2.55350164269485      -11.91286039577625
C           11.33613915439093       -3.31944704232545      -12.97072056240095
C           12.26539274878970       -3.92047717342324      -13.91857292693143
C           11.92626561214959       -4.58193476537089      -15.02678736086819
S           13.13755744117283       -5.26090607497909      -16.09229776037276
C           12.12058640404137       -5.57514896887064      -17.49465898991112
C           12.54992067037635       -6.18728651969846      -18.59654885953215
C           13.96085964156877       -6.68299991049324      -18.74562549713580
C           13.99464829271511       -8.15900437143492      -19.19070151328031
C           13.10925397464163       -8.42161892684591      -20.44284223507850
C           13.73207939472343       -7.83139659561066      -21.70876979111287
C           11.66206895134633       -7.89724265605159      -20.21553198157449
C           11.63361136912013       -6.42233678174106      -19.76632954357529
C            9.95244538014827       -3.47887546790045      -13.07231104676541
C            9.10452689737025       -2.89794493630788      -12.15875136474443
C            7.55799596089369       -2.18126147292863       -9.65801552024708
C            6.71594796482169       -1.60608760368232       -8.73550638916916
C            2.43509696897446        0.67348807271120       -2.79761707353769
C            2.87816700738607        0.91706219113670       -1.34092188704889
H            0.76602919202330       -1.13194268041504        0.57477109383366
H            0.44480161066089       -0.48604253791541       -1.02782971473563
H            0.65837494273131        0.61152453056593        0.32816741896729
H            3.03204049005763       -0.10066577345537        0.56071371158382
H            2.69494889513312       -2.44573719214842       -0.34549355731653
H            4.13074056666468       -1.63797799338222       -0.93155486659264
H            1.50950034264590       -2.02924021703107       -2.48327469640503
H            3.05877230902870       -2.74673219788405       -2.85265434927263
H            3.99548494182379       -1.75239725994833       -4.70640010629324
H            4.90515303438329       -1.33323910707392       -6.72248107765171
H            6.27445556524431        1.35301468090463       -7.04942316448965
H            8.29486469841002        1.34326737798739       -8.33681891007415
H            9.79137702070155        0.31875535927031       -9.98476835862384
H           11.38245815418925       -1.39317068267740      -10.18654432394643
H           12.89444953153706       -2.42256696813768      -11.81650092280762
H           13.31551205952291       -3.81045962838648      -13.70650751932019
H           10.89829425489873       -4.71530571451064      -15.29742798324820
H           11.10384094004948       -5.23802612566955      -17.43798829245499
H           14.49904323141920       -6.55456867783099      -17.79845634660512
H           14.48921350948877       -6.05292233574284      -19.47027246703321
H           13.65695553620965       -8.79375633691078      -18.36229598967788
H           15.02674677085303       -8.46867942665469      -19.39990520088492
H           13.04726413391001       -9.51727411478707      -20.58198823093906
H           13.82544447559895       -6.74856674083117      -21.62952555406902
H           13.12358449156945       -8.04229825860748      -22.58961950272904
H           14.73113078953792       -8.23212055425283      -21.88766271263124
H           11.16260745703543       -8.51486398935371      -19.45902007386848
H           11.07698484617256       -8.02516339259937      -21.13545572980559
H           10.61234494449112       -6.11896580235858      -19.50327974690964
H           11.93062796703338       -5.76662181225457      -20.59291577655055
H            9.54313701117956       -4.06836725173388      -13.87325286185190
H            8.03993037037834       -3.02130968848120      -12.25930867744165
H            7.35869098529397       -3.17453227933578      -10.02181074920586
H            5.84880739764231       -2.14688261582545       -8.40024472690040
H            1.34231393884575        0.70847969381795       -2.87543478121526
H            2.80177270338401        1.47314416234568       -3.45278662164053
H            2.42660080899330        1.84077865012397       -0.95667501374051
H            3.96186691260858        1.08503361909316       -1.31730177485723
