42
 energy: -8.362999857079 gnorm: 0.000694295136 xtb: 6.6.1 (8d0f1dd)
C            0.94344275482177        0.01683011006691        0.15349305391079
C            0.19568909404853       -1.10063040236259        0.27113119260760
N           -1.17837726986621       -1.11239582208702        0.29199944695192
C           -2.05613763428013        0.08306737783018        0.22595832318111
C           -3.48204925890382       -0.40128424591722        0.53850072629013
C           -3.46661651502030       -1.92569261793174        0.30432412767691
C           -1.99033950297939       -2.34992106486459        0.40289117516311
C            2.37834882773597       -0.00765382711819        0.13650639714092
N            2.97289121004591       -1.18546285755865        0.19735491498760
C            4.31663420875133       -1.15801328179183        0.11341810808807
C            5.03645404384167       -2.36856338484976        0.17413699824989
C            6.39756483336040       -2.38726196012214        0.08369065490413
C            7.10543440817213       -1.19595490719172       -0.07404746821820
C            6.43946690629805       -0.00625182225836       -0.13821662721640
C            5.03546229890936        0.05095150386471       -0.04689555880070
N            4.41943032404990        1.25105568775671       -0.10145104786627
C            3.11115182721585        1.21849696447242        0.01906530455082
C            2.40566344370317        2.52147034974319        0.00977532510923
C            2.68503639571298        3.45224630802180       -0.98862487708595
C            2.05735294860831        4.67746243084429       -1.00470301693684
C            1.14674054516710        5.00125844249991       -0.01854747933458
C            0.87298888062149        4.09924843773336        0.99044435926807
C            1.49998269724693        2.87393965075672        1.01081093916848
H            0.44299847916273        0.95897125028983        0.04211672841658
H            0.69609430325843       -2.04690682197024        0.35516775667217
H           -1.98278947778155        0.51199636756565       -0.77779392752139
H           -1.70735562797922        0.83702600146516        0.93833592950644
H           -4.23211623132771        0.10487903273708       -0.08211400939267
H           -3.73959137981069       -0.17902257011065        1.58094258536283
H           -3.86559931914865       -2.16231209278388       -0.68928280582451
H           -4.09492043203766       -2.46067263501554        1.02749914234040
H           -1.70037437318011       -3.04967242894873       -0.38704515336131
H           -1.76655446919070       -2.82424888170256        1.36314371863030
H            4.48206921627807       -3.28293833078290        0.29302324862554
H            6.92920008407928       -3.32334906024369        0.13331988159828
H            8.18060773260726       -1.21696412386878       -0.14377656849828
H            6.97773574363209        0.91776944737588       -0.25692959273135
H            3.40357923734287        3.19525041374615       -1.74777197496234
H            2.27988058362346        5.38560831380633       -1.78610478414410
H            0.65635215305572        5.96090456424286       -0.03173367710852
H            0.17178401996917        4.35715923942247        1.76723985216067
H            1.31080429018446        2.18101124524815        1.81271867844101
