30
 energy: -5.868180697038 gnorm: 0.000371779610 xtb: 6.6.1 (8d0f1dd)
C            1.06658179803391        0.51176485051634        0.06150445071030
C            2.48526125346848        0.02754407767458        0.18168862928519
B            2.90441309458800       -0.89391738418392       -1.04245456302606
C            3.49837259486744       -0.27273641542956       -2.29130473131888
C            3.68696716244323        1.10216532663200       -2.46695367659025
C            4.23916948745092        1.58480588200375       -3.61814955799139
C            4.62284877601079        0.70716148277281       -4.63788336321799
C            4.44315357652058       -0.63695222223517       -4.49132202560796
C            3.87164091883112       -1.16023067618828       -3.31473182349081
N            3.66112428696325       -2.50752113471377       -3.16941453311695
C            3.07648070904826       -3.13539831348658       -2.09961616649411
C            2.87737637475543       -4.53005299058040       -2.09468138775189
C            2.27202285163938       -5.14152194285811       -1.03634623522242
C            1.83939088755910       -4.38772064123670        0.06001619500323
C            2.02454569597721       -3.03553804798927        0.08102799917688
C            2.64817501673919       -2.38714486141750       -0.99014051870546
H            0.77584879064751        1.14790207298276        0.90054933615871
H            0.36821807198780       -0.32621441703465        0.02206680607262
H            0.92523401079221        1.08621668572213       -0.85582579853720
H            2.64557225377187       -0.55753238870065        1.09021053834826
H            3.19997927346320        0.85269130663586        0.22239769688368
H            3.38563723046039        1.78181767173909       -1.68988177207914
H            4.38023082102544        2.64574366982919       -3.74535450411681
H            5.05812464412102        1.09771545398730       -5.54319112015696
H            4.73115632819157       -1.31504424108665       -5.27557770793351
H            3.94706538840083       -3.10036734430920       -3.94582980592425
H            3.20688552703537       -5.10533852393382       -2.94218856841274
H            2.12193166337104       -6.20875454153815       -1.04331433834373
H            1.35752659548675       -4.87911111022162        0.88946919140985
H            1.68194491634881       -2.45965128335050        0.92219135499001
