11
 energy: -1.515537991015 gnorm: 0.000535118758 xtb: 6.6.1 (8d0f1dd)
C            1.01622191365849       -0.02284438521974        0.06984858208764
C            2.53697876849665       -0.04586846911127        0.10286300908702
C            3.08184052307026       -0.85836738178139        1.26789145878695
H            0.63030540759616        0.56208588253735       -0.76887356963139
H            0.60742194790246        0.40897336679172        0.98605127021200
H            0.60742195824672       -1.03182468295715       -0.01877047806528
H            2.92440984754577        0.98204110372315        0.15174564531439
H            2.92441026240982       -0.44693824888540       -0.84483454749799
H            2.74248131707673       -0.45462369160027        2.22436257591915
H            4.17454567157509       -0.87152895208123        1.28676486555048
H            2.74248238242183       -1.89543454141576        1.21953118823702
