34
 energy: -6.352676668512 gnorm: 0.000320672737 xtb: 6.6.1 (8d0f1dd)
C            1.05296753829711       -0.20996438351586       -0.08120796766245
C            2.55311339957215       -0.42454034311526       -0.12599132923092
C            3.14001350348622       -0.02953250608048       -1.45358269287264
O            2.42962420978105        0.41235536708810       -2.32834378716150
C            4.58729603177206       -0.18167713565509       -1.68139030805836
C            5.46203468795228       -0.71155515627521       -0.70639205142759
C            6.79332798618028       -0.83505360571381       -0.95434825533245
C            7.33977484684077       -0.43507695733690       -2.19801196934331
C            8.70971596523114       -0.54731311668224       -2.48355341994612
C            9.23397460373431       -0.14916532117164       -3.70046362215999
N           10.60824495655452       -0.26692050368138       -3.96870842264454
C           11.51840751460518       -0.92385388490871       -3.03128960512734
C           11.19424259337181        0.23787384089072       -5.20963666902168
C            8.34712909944247        0.38042437790977       -4.67152053880389
C            7.01716322695076        0.50049960893570       -4.42502589930176
C            6.47175079963461        0.09795429174985       -3.18265838478824
C            5.10156776054459        0.20992358311519       -2.89337334238265
H            0.61931546642404       -0.49157457568318        0.88067701207840
H            0.55732582498338       -0.79268366697642       -0.85924908871255
H            0.80817006283628        0.83657781422119       -0.26937757143414
H            2.79173606631348       -1.47622945006304        0.07159758119571
H            3.04327785448458        0.15443381190334        0.66570891623036
H            5.06522976422140       -1.02010459885499        0.24464011531452
H            7.45098258332907       -1.23916441426654       -0.20434751040608
H            9.36023241468966       -0.94532004312745       -1.72792268751185
H           11.14356184518728       -1.91365464731021       -2.77781728335926
H           11.60894335299046       -0.33222896998590       -2.12233079930556
H           12.50969041674415       -1.04159676284215       -3.46408033414213
H           10.88460152362378        1.26729900485870       -5.37900538764667
H           10.87356909373858       -0.37505731538041       -6.04982720062667
H           12.28121348618759        0.21963008252448       -5.16492278505782
H            8.73918851898308        0.68421938027946       -5.62548070231993
H            6.35825229027812        0.90384078489819       -5.17439624334175
H            4.43058071103358        0.61067541025236       -3.63170776568951
