62
 energy: -11.173530218147 gnorm: 0.000700310706 xtb: 6.6.1 (8d0f1dd)
C            1.00969715427593        0.40382414591690        0.20410453549704
C            2.51689914500718        0.24821866961993        0.33078109365943
C            3.00627661196912       -1.17153810674457        0.73468176676571
C            2.39631070505262       -1.55743810594184        2.09588614589809
C            2.55708156705036       -2.21402335696487       -0.30690230235878
C            4.54370055420086       -1.15209883487483        0.79579358447347
C            5.24795009276285       -1.32801950962082        1.98115724628871
C            6.62566144219566       -1.29199687898469        2.00558543959289
C            7.35678672932656       -1.07090191678252        0.84203744496122
C            8.83766767367768       -1.02777444542376        0.86520015108008
C            9.57038856930914       -1.96464954795543        1.59220497528733
C           10.94550095164136       -1.92632701781867        1.60990941944556
C           11.64410421519104       -0.94746868322587        0.90461537068514
C           13.12489180946945       -0.90382144898600        0.92986661445849
C           13.87903076523564       -2.06781875884493        0.81783532501181
C           15.25572750316369       -2.02404142622133        0.85269761605553
C           15.93932951615290       -0.82387789265234        1.00496064207420
C           17.47889003550654       -0.82684170922555        1.05122393028945
C           17.93901929572543       -1.73099125289197        2.21022299801297
C           18.01301121888351       -1.37947200594360       -0.28288911079689
C           18.03732004034182        0.60985121778152        1.27207734763877
C           19.55311869547348        0.71714862290968        1.35265016014221
C           15.18335736005717        0.33840412455665        1.10980318446700
C           13.80593440713634        0.30145798657600        1.07268725254743
C           10.91123086676876       -0.00945325722170        0.17912263973900
C            9.53618778467953       -0.04991343461339        0.15849555847883
C            6.65329527777581       -0.88824553516133       -0.34466187957591
C            5.27624506558641       -0.92881832135609       -0.36323875048778
H            0.73083849863954        1.41774399535718       -0.09421561766576
H            0.50148180212120        0.19749435174860        1.14761244322144
H            0.59690341343911       -0.27522753673805       -0.54421419033173
H            2.90664872097363        0.96256952917191        1.06618595972607
H            2.99561426304098        0.52367419745067       -0.61609325355596
H            1.31257167175112       -1.64681939107722        2.03032128543955
H            2.62131090853955       -0.80868116365271        2.85532096881585
H            2.77870288476393       -2.52044425900129        2.43451160297892
H            1.47382539010528       -2.33026015455773       -0.30892224173081
H            2.99347356063459       -3.18814465500839       -0.08518213461872
H            2.86342898575086       -1.93079471332197       -1.31323525047170
H            4.71582112417795       -1.49102735141542        2.90150753478890
H            7.15240395178452       -1.42202368783819        2.93556014567183
H            9.04479047797397       -2.73116035091239        2.13551985865236
H           11.49784235717083       -2.65142948015777        2.18270264108426
H           13.37175677510450       -3.00918353142648        0.69211359853963
H           15.81255836429782       -2.94034479742991        0.75861625381545
H           17.53914685635139       -2.73930297968483        2.10900912047770
H           17.60074236656375       -1.33320247365080        3.16713619974152
H           19.02436993911248       -1.81621212134768        2.24144879573590
H           17.61147622686196       -2.37127868008422       -0.48762730858290
H           19.09881201351564       -1.46480394374147       -0.27213172824305
H           17.73092187804459       -0.72873103726612       -1.11060893241902
H           17.59595589452274        1.01130546710415        2.19208445853814
H           17.67195673735650        1.24864150167725        0.45932500230481
H           19.95722282825552        0.13235993557743        2.18061179291805
H           19.87765291026442        1.74972847081832        1.50480065542861
H           20.03339145269503        0.36410632487302        0.43861429104849
H           15.67129472416744        1.28973734758985        1.22547244278374
H           13.23937863651418        1.21195498683767        1.16939797251313
H           11.43704852819895        0.74707968372849       -0.37777309851766
H            8.98314332632533        0.68594669254072       -0.39975119427139
H            7.20110454887451       -0.72459604257983       -1.25697998091468
H            4.75785292849454       -0.78344745347815       -1.29515649222757
