67
 energy: -11.834558135384 gnorm: 0.000764104260 xtb: 6.6.1 (8d0f1dd)
C            2.05114097461062        0.15962988832424        1.13285199495035
C            3.08640651687974        0.31941995812314        0.03104565855783
C            3.57111079865862       -1.01184614859912       -0.55800427471928
C            2.44796885090378       -1.78453498419088       -1.23472567252605
N            4.71441353980711       -0.78377302614047       -1.48882521343686
C            5.28432302614086       -1.80854983162106       -2.25639550670850
C            6.35074472795552       -2.61041402813349       -1.75338662714676
C            6.90501840871718       -2.39247663794430       -0.48348520335075
C            7.91752722406752       -3.17802652137992       -0.00695841449839
C            8.43859111766792       -4.23268936263108       -0.77414833608034
N            9.49262175432214       -5.04020086833621       -0.29441609787033
C            9.87145548804895       -5.08501022343059        1.13298049609693
C           11.15490677719281       -4.28556742855164        1.37468502518671
C           12.28840419509262       -4.81340539344205        0.47819822577006
C           11.86114875664233       -4.82672453064670       -1.00068176554933
C           10.54107727273818       -5.58530066916112       -1.18870556175792
C            7.88395541784763       -4.45940830131164       -2.03172818704272
C            6.85159942721982       -3.68094897600132       -2.53802451003605
O            6.34181934077507       -3.98867498770685       -3.78923887507258
C            5.32750509836708       -3.19022700107997       -4.29127874316662
C            4.82263985577493       -3.46222813200194       -5.55570141314197
C            3.82638427338855       -2.68334097174908       -6.14143151729485
N            3.33894238602750       -2.97396037132261       -7.43437864460860
C            2.95255196407052       -1.90964068860506       -8.39091873343791
C            4.02645695606732       -1.73835804355011       -9.47302268573115
C            4.33398355146501       -3.07745836689768      -10.16708875843062
C            4.68197316072081       -4.16507117034092       -9.13596426425784
C            3.57051240128478       -4.27810598541681       -8.08922651320407
C            3.33173865967578       -1.58925261134304       -5.41226355785564
C            3.80593656837177       -1.30546874886557       -4.16193638405832
C            4.79464934981349       -2.09750596318015       -3.56277249640880
H            1.76577561826941        1.12080588102777        1.56667698421998
H            2.43102375532665       -0.46533584731579        1.94330161465602
H            1.13873947091219       -0.31040550411994        0.76229962359583
H            3.95139752152036        0.87751332852522        0.41142469540994
H            2.68700293387049        0.93406963609491       -0.78445395216198
H            3.96069263399752       -1.63101844458873        0.26716024336617
H            1.97906194412699       -1.18117988926694       -2.01115639306143
H            1.66930783886178       -2.07565774642356       -0.52869410716630
H            2.82474831080077       -2.69347639042096       -1.70525523063801
H            5.36986788908269       -0.18279989875893       -0.98681326704905
H            6.52138948389654       -1.59197712861082        0.12324853476988
H            8.34435597016168       -2.96621727334530        0.95675707290798
H           10.02499490427204       -6.13459191195015        1.40364949056909
H            9.03944778222168       -4.73844119978450        1.75369596819739
H           11.44132506962211       -4.31341646573237        2.43530311897641
H           10.97046304319822       -3.22953301320418        1.14292496154505
H           12.55493637576407       -5.83115013013824        0.78924768443476
H           13.20150191927649       -4.21683757469545        0.61427026549935
H           12.65029186020549       -5.25838580151683       -1.63214203566309
H           11.73384773220947       -3.79491261804883       -1.35057017378952
H           10.66921746700656       -6.64702923465755       -0.95692547370975
H           10.20649260958987       -5.53560645170244       -2.22864476913856
H            8.22373827006808       -5.28442529620514       -2.62709451656053
H            5.25591636221979       -4.27981016909466       -6.09804274030263
H            2.78305727746129       -0.97127589982596       -7.85584446242875
H            1.99311481100883       -2.18554280262844       -8.83901326274529
H            4.94256059740714       -1.35147103454927       -9.01010000518264
H            3.72154469711147       -0.97876791171953      -10.20645594592442
H            5.14666122766106       -2.95983082333014      -10.89762326339336
H            3.46042951981113       -3.39457917557165      -10.74995354464923
H            5.62247542215758       -3.90391484176081       -8.63612544875268
H            4.86147186497443       -5.13295795151723       -9.62433757355075
H            3.78116289067121       -5.04367761038119       -7.33599138641642
H            2.63329525142287       -4.58215834865656       -8.56600315614315
H            2.54506591074899       -0.98823624091481       -5.83161779808949
H            3.43210592276304       -0.45486808807402       -3.61983519479889
