86
 energy: -15.802972247799 gnorm: 0.000865504198 xtb: 6.6.1 (8d0f1dd)
C            1.43127799868355       -4.10708359124968        1.28215066481677
C            2.65769762315671       -3.36915113430355        0.77430635957801
C            3.84471022554480       -4.27222551760911        0.38628911755116
C            3.53191538594781       -5.24341095148347       -0.77541935822877
C            2.97581272924400       -6.58807240258331       -0.33204034641069
C            5.06052588565448       -3.41535575694444        0.02623436008495
O            6.20084130992470       -4.21360029170876       -0.29504244752332
C            7.32231301369142       -3.48040087283410       -0.61301686570358
C            8.61968394585827       -3.80918219460225       -0.16567186680742
C            9.48197741730230       -2.79337932235956       -0.54317630973802
C           10.87378603319278       -2.61049279784689       -0.33499630620906
C           11.79554576834764       -3.43570361975601        0.35939036730331
C           11.61091110772029       -4.62310651251901        1.04506746153679
C           12.85065788902614       -5.01756148038447        1.58765504898690
O           13.16031073461860       -6.13965870176231        2.29469819370208
C           12.12265993864493       -7.10939441504785        2.31778452727077
C           11.90765096967584       -7.80345882754676        0.96507643885971
C           13.16671195250711       -8.57112175708643        0.52751875460524
C           14.36451940562234       -7.67806957051797        0.25205353053424
C           10.66200917774898       -8.70862679868077        1.01633468623398
C           10.20983653808303       -9.21010086716204       -0.34579148616620
C           13.82620578178532       -4.00281807818123        1.23012373404865
C           15.21998762721508       -4.00086239855362        1.65036547759552
C           16.17161167394296       -3.17010539062939        1.06230984265954
C           17.47859524306460       -3.16837691885725        1.49036226328751
C           17.87135995830705       -4.00302209399659        2.51622266791170
C           16.94940343016017       -4.84052889824669        3.10963651024905
C           15.64242727887170       -4.84004544751018        2.68078085143829
N           13.16114793086182       -3.10869871412305        0.48753251649574
B           13.77517397940590       -1.87056774966881       -0.20585098598579
F           14.64860454510505       -2.30999767852802       -1.19470222348997
F           14.40593603051757       -1.08547531880797        0.75190834846028
N           12.69777454827295       -1.01662534547911       -0.89032223378336
N           12.83349771319173        0.09593135762840       -1.54624396695358
N           11.63895793383383        0.43691675975679       -1.99975870334745
N           10.80181237323988       -0.47942448922602       -1.61773081869164
C           11.40974804802135       -1.45987288653333       -0.89176575950478
B            9.28236009485921       -0.54760950549611       -1.82913816283261
F            8.71251151116165        0.50908367690440       -1.12551796974956
F            9.02086646342610       -0.48118822332131       -3.19188573210262
N            8.70709962769096       -1.86780254562122       -1.26954367830712
C            7.42897698923564       -2.24975688905656       -1.38419061829893
C            6.42060945120534       -1.68836829663657       -2.28077177204542
C            5.55571913495704       -2.52729833644883       -2.98470420588899
C            4.60534548040640       -2.00951775363134       -3.83385520949883
C            4.50520948663948       -0.64433892473061       -4.01066824971780
C            5.36717312825275        0.20102630135403       -3.34228921754292
C            6.31590712438536       -0.31497489399704       -2.49125693003774
H            0.66773603859372       -3.41915514614521        1.65136332423973
H            1.68602988156601       -4.78125219991983        2.10123096637056
H            0.96653163813958       -4.70130155230252        0.49506082136559
H            2.99785785803467       -2.65589755915361        1.53597537737475
H            2.39211367054666       -2.75081868553827       -0.09145877937389
H            4.12317153503342       -4.88011716943781        1.26100946572089
H            4.45983933161414       -5.41180426667644       -1.33793278670355
H            2.85580567524168       -4.75259447408570       -1.48541937616335
H            3.67063032515978       -7.09737065500171        0.33763586670552
H            2.79489266353089       -7.25258357082602       -1.17927120971867
H            2.03372768215903       -6.48640891949718        0.20490256856842
H            5.34113319556589       -2.75879038537258        0.85694726246366
H            4.81821658692659       -2.77229398527896       -0.82062837442481
H            8.85405397418053       -4.67447028230751        0.42335713398715
H           10.68184174492539       -5.14579048133380        1.16104945217969
H           11.20927845759901       -6.62572524534466        2.67866580191381
H           12.39776879286850       -7.85134753884618        3.07421202841121
H           11.72404530175586       -7.02249665064251        0.21228627497905
H           12.94134719463579       -9.16026178383675       -0.36898342853721
H           13.41335824146745       -9.30850878849894        1.30034018366983
H           14.13511858618526       -6.93410436158346       -0.51239742719107
H           15.23246038306147       -8.24581948920041       -0.08890002889986
H           14.66222684153819       -7.13302532305316        1.14783498096077
H            9.84237054365927       -8.15642538872896        1.49322928304812
H           10.86639709025603       -9.55203903867339        1.68612488563091
H           10.01570065928744       -8.37965124452613       -1.02636016849957
H            9.29262968583883       -9.79867173250771       -0.27863091746518
H           10.96294550535386       -9.84340800144699       -0.81537851146737
H           15.87143488393084       -2.52264131809350        0.26012212778445
H           18.19507939824747       -2.51176967990444        1.02435241091286
H           18.89507084626200       -4.00057898117988        2.85255232490540
H           17.25268231484417       -5.49408577362604        3.91104370444082
H           14.92233123035185       -5.49095830643667        3.14298609462049
H            5.65091440403032       -3.59206740790495       -2.85951611876021
H            3.94220249367906       -2.67138641536769       -4.36627355091545
H            3.76361740342187       -0.23970648745546       -4.67954423004432
H            5.30646910520339        1.26598179884031       -3.49637744003682
H            7.01729119710298        0.33580255657558       -2.00218029071039
