100
 energy: -17.936824000534 gnorm: 0.000594598756 xtb: 6.6.1 (8d0f1dd)
C            1.92401608570949       -1.64601033983339       -2.68136164291707
C            2.46697150803236       -0.65685761865063       -1.66491038550422
C            3.50035762407586        0.33438879072856       -2.23120756311707
C            2.93280510581972        1.27184483875513       -3.32399149304166
C            3.14389278502129        0.75998739257327       -4.74056748549563
C            4.12228310239015        1.17067209628650       -1.10593664559855
O            5.12503700747880        2.05879832052815       -1.58041714431164
C            6.27768744739749        1.42824067974139       -1.96470139575363
C            6.62025547372171        0.07530872884685       -1.86791223091581
C            7.89000375709058       -0.10041841051880       -2.42054893680561
C            8.66835487503516       -1.26382263084307       -2.58598374832424
C            8.30325259261526       -2.60267685573585       -2.33857455815244
C            7.08281413749492       -3.15973515151599       -1.94963803498791
C            7.23283675602886       -4.54858530063691       -1.88067312407659
O            6.30153848111016       -5.49715082474363       -1.55400645890553
C            5.01795095969046       -4.94667358771315       -1.30012603623841
C            3.99425041385417       -6.00825122949292       -0.88423297290266
C            4.36416548319863       -6.62589898906155        0.47423386000016
C            5.70073200893517       -7.34644585024481        0.47286158183266
C            2.57324960402488       -5.41284989792906       -0.88518819951754
C            1.47107817550185       -6.44538494016359       -0.71202801086589
C            8.60634582258295       -4.85373166237546       -2.24045544862535
C            9.16511184918669       -6.17138325672377       -2.30024225675093
C           10.45324420127905       -6.52587479980725       -2.59097890714492
C           10.67815782233390       -7.92815460969768       -2.58062344144502
C            9.57400817263118       -8.65151381495491       -2.27916033454489
S            8.23208468870995       -7.60357666503033       -1.99415376146134
N            9.18832492351090       -3.67755296125636       -2.51222765745778
B           10.63805279964264       -3.49400371791313       -3.00714502609481
F           11.51706055055984       -3.91327356931982       -2.01500072588310
F           10.81310052774094       -4.21819679263917       -4.18166486246137
N           10.91433956872046       -2.01949981318542       -3.30873809512655
C            9.96622112132693       -1.06411917415096       -3.08984730349688
N           10.51813640140247        0.12365102876418       -3.46816228656371
C           11.81537601777364       -0.06038618947815       -3.92293162493231
C           12.78352982484625        0.80635752317126       -4.41006135809565
C           14.01254138305549        0.30272442809249       -4.79468866603289
C           15.07560600077352        1.27393985174892       -5.32774768385603
C           14.53364459348906        1.97631884783656       -6.58602205060613
C           15.39284023032956        2.32137558963745       -4.24468935681741
C           16.38223705313536        0.54812103144050       -5.69973371202557
C           14.25077752389262       -1.08465741394989       -4.68550284749289
C           13.30446565745198       -1.96105486920001       -4.20769898149067
C           12.07349195020019       -1.45168358102503       -3.81978636578373
B            9.72286417161994        1.42941826832307       -3.41369762259810
F           10.40911000480633        2.32800934911108       -2.60455597808778
F            9.58884294926397        1.91490212139085       -4.71011597835228
N            8.32361236067140        1.17230202054869       -2.82176888978589
C            7.40061126455777        2.11320123689364       -2.58062758519539
C            7.44229287514661        3.51506785831211       -2.86982880899457
C            8.45571634341969        4.22625592705296       -3.44964184029625
C            8.17404087451860        5.61075554201430       -3.59461256601800
C            6.95220832441542        5.96628978286969       -3.13198660675789
S            6.12502441903689        4.58620634631567       -2.50575937721454
H            1.26526672231864       -2.38427627338916       -2.21908042037640
H            2.73188579379822       -2.19038530433797       -3.17320982862504
H            1.34488656068631       -1.14455755543218       -3.45743283450624
H            2.92600032117316       -1.20268094699139       -0.83033871426450
H            1.64543312804308       -0.08782481617367       -1.21375313257886
H            4.30647238166177       -0.25046144605845       -2.69848328945603
H            3.41818378405497        2.25209749997811       -3.22280563207976
H            1.87059149259866        1.45976466962253       -3.12665966807182
H            4.20665147942972        0.64116886041487       -4.95896463655148
H            2.73272386763407        1.44267472314739       -5.48683771402988
H            2.67575208089942       -0.21156973327981       -4.89604799298078
H            4.55084585127029        0.54712320926475       -0.31467497069934
H            3.35127682881394        1.78807074158179       -0.63386300644080
H            6.03174811046735       -0.68551400003373       -1.39390718568939
H            6.16972453838113       -2.62522762958022       -1.77530371928719
H            4.69347621847582       -4.43481934248873       -2.21276843366892
H            5.11385350694062       -4.19345364798534       -0.51173729699433
H            4.03199844326929       -6.80877431368153       -1.63919393336764
H            3.57598253203240       -7.32032883582481        0.78801393676220
H            4.36484002443389       -5.83122373535696        1.22978646073702
H            5.71298571842686       -8.15175142652301       -0.26315426484761
H            5.93647490376489       -7.78252996095905        1.44573047335791
H            6.51283509080336       -6.66639485930811        0.21226093289067
H            2.41948777654013       -4.86665772846855       -1.82456207246787
H            2.51004262746150       -4.65135678764178       -0.09877089399176
H            1.53419288451910       -7.22080681443923       -1.47699579753898
H            0.47805096882785       -5.99676981097190       -0.78276362923113
H            1.52943281570791       -6.94165390885973        0.25712035015531
H           11.21814299229334       -5.79710593532658       -2.80669135396570
H           11.64001804825402       -8.37101908486917       -2.79561313851927
H            9.52345760984221       -9.72196903041652       -2.21861983758843
H           12.55472403917061        1.85342893552520       -4.47579573984981
H           13.63418973654059        2.54843489066317       -6.36384191191402
H           14.28345656634966        1.24696963709146       -7.35553335581083
H           15.27209741277581        2.66292039210086       -6.99835443773997
H           14.50958730585590        2.90269260644585       -3.98467923306022
H           16.15991141265843        3.01559224704175       -4.58586689610542
H           15.75348463847619        1.83858342290901       -3.33719061722499
H           16.21123130297506       -0.19234102311628       -6.48021464478694
H           16.81304884643444        0.04743754907236       -4.83343628815206
H           17.12297198953340        1.25426673550600       -6.07346408427888
H           15.20470299487952       -1.47911037417573       -4.98509784877052
H           13.48775679910775       -3.01789344738739       -4.12735241153421
H            9.37886631436202        3.76585555537034       -3.76339545105936
H            8.87115786542578        6.30980332923149       -4.03390284694379
H            6.54130201633549        6.95779968486079       -3.14424435573866
