56
 energy: -10.317770198023 gnorm: 0.000548496191 xtb: 6.6.1 (8d0f1dd)
C            1.01527164281357        0.98463340670407        0.19750634032864
C            2.52487245022727        0.95549526833395        0.03164081528821
C            3.02640089956483        0.16807385195828       -1.19635466054434
C            2.52449331801942        0.74543786854071       -2.54762239990472
C            1.21786372727494        0.13658533171882       -3.03509764684749
C            4.53856435082689        0.07065614719411       -1.16883961014935
C            5.16434567600118       -1.14284739546882       -0.86365345468377
C            6.52857221040182       -1.23671715799417       -0.80921110519265
C            7.33328374793412       -0.11264422593645       -1.05700697527227
C            8.73565441295166       -0.15635974229070       -1.00275923984221
C            9.47670048261753        0.96283330629108       -1.24913846401220
C            8.81039348841867        2.16782178229706       -1.56313934428120
O            7.45699492522547        2.25350047499691       -1.61977646914971
C            6.71564590311207        1.12064871102106       -1.36685293080958
C            5.31611986090393        1.17846227402818       -1.41144484837103
C            9.56070613303515        3.38354571454584       -1.84613090444153
C            8.87677914678953        4.50075976288075       -2.11906830250364
C            9.48446649622145        5.82304919143049       -2.42862003568550
C            8.46124330788354        6.91363209140983       -2.56676912285418
C            7.85950721620081        7.16498312861953       -3.79063159377463
C            6.89188679170917        8.14162485737963       -3.91175942824487
C            6.50843314404647        8.87428639763100       -2.80748149171386
C            7.09075310263909        8.62555126394009       -1.58177646072989
C            8.05819742199212        7.64852030963924       -1.46202771506686
C           11.06446823300958        3.36459896331687       -1.81977416261098
C           11.64977443013838        1.96456990866812       -2.07031216127250
C           10.97741354010911        0.90877624014911       -1.17835363128442
H            0.71836015966216        1.45738749343503        1.13675887638412
H            0.59683866409022       -0.02356885034176        0.19368184573899
H            0.53487855132538        1.54609460679919       -0.60510516064796
H            2.98849235486656        0.52577163401787        0.92957215790731
H            2.91692410523699        1.97827725765532       -0.02390761536437
H            2.63445016483624       -0.85822670979679       -1.11737003395484
H            3.30127305856322        0.58183194444126       -3.30671302816915
H            2.43856999287927        1.83572414426066       -2.46362912257849
H            1.31739329561417       -0.94047533522323       -3.18355367820421
H            0.89722125932812        0.56691830181102       -3.98664986210807
H            0.40633051300587        0.28504765938029       -2.32295135997287
H            4.55711248956294       -2.00967783483052       -0.66641237931100
H            7.00071808718707       -2.17464239534388       -0.57244237629214
H            9.22614593328968       -1.08195246132335       -0.75953233375343
H            4.85371177925576        2.12058472396597       -1.64019750764762
H            7.80173688188203        4.43925248742502       -2.12027886719833
H           10.06646143459435        5.75423377568474       -3.35472408333223
H           10.20018611311941        6.09304344123942       -1.64378498611782
H            8.15306487227090        6.58412124076840       -4.64851388444768
H            6.43359670315182        8.32961747369372       -4.86916941521510
H            5.75244201127769        9.63699950524217       -2.90162655286260
H            6.78800036268783        9.19248308907677       -0.71637521052380
H            8.50680313896169        7.44490107328595       -0.50452766011143
H           11.40251766475839        3.73895367772763       -0.84613987137648
H           11.45295547827694        4.07364907741962       -2.56106169772866
H           12.73789911138734        1.96625607504578       -1.91458664751715
H           11.50436688473491        1.69413343763527       -3.12372294199549
H           11.28431117109382        1.05451966450179       -0.13570203986650
H           11.31850170302140       -0.09849592865333       -1.44977956010949
