62
 energy: -11.619755918138 gnorm: 0.000888435672 xtb: 6.6.1 (8d0f1dd)
C            1.95756624931519       -0.31714971554683        0.67789257423642
C            2.82480774085383        0.93199985985785        0.71920468022859
C            3.36853544042897        1.35611961992703       -0.66266381505984
C            2.52319514642874        2.41764955222507       -1.37632942579448
C            1.10798307505256        1.97128360469531       -1.70114077725364
N            4.77503928368077        1.81241956749990       -0.55198812484719
C            5.25182640716685        2.85047598837409        0.26273446924169
C            4.59770335133196        3.72769538038877        1.13159744772036
C            5.33941848298483        4.65540543015209        1.82084620182801
C            6.72714091731831        4.73066943340150        1.66672865481353
C            7.38989933132457        3.87661002606615        0.81921114177716
C            6.64984730668952        2.92874879640527        0.11012886144479
C            7.04478914984150        1.90583749362103       -0.82746936190051
C            8.29570575565235        1.54677359712079       -1.31712079196314
C            8.35363388315730        0.49324808569424       -2.22017292843921
C            7.16855136325709       -0.18030636061007       -2.62681539718945
C            5.91713656043189        0.17764671673374       -2.13630703335416
C            5.86309495337698        1.22622785981984       -1.22833525209392
C            7.55854963352150       -1.19934068141336       -3.57026921961124
C            6.81538838568048       -2.13638360318384       -4.29047494561533
C            7.47646033149568       -2.98894557192762       -5.14100316044644
C            8.86563080646852       -2.92362696297716       -5.28679472258521
C            9.61095756710034       -2.00776615540038       -4.58551026061431
C            8.95692926651559       -1.13184946303270       -3.71483619081540
N            9.44073974998840       -0.10540146486189       -2.88952753288875
C           10.86721177334421        0.27473736699556       -2.76415801344524
C           11.09752251480345        1.69290373747472       -3.29231544720797
C           10.57653480916115        1.86490529891585       -4.70742066225620
C           11.36618247632875        0.05929943315688       -1.33054215212326
C           12.87815329335105        0.13440956935863       -1.19561115321106
H            1.59409123358184       -0.59533000707671        1.66933865613623
H            2.51430644228645       -1.16933963895298        0.28419729246170
H            1.08484600743675       -0.18394301320918        0.03822973723530
H            3.67982934170437        0.76193488351493        1.38655522840380
H            2.27646049960830        1.76871601137088        1.16763844389135
H            3.39052127800066        0.45948651552994       -1.29724490149432
H            3.04506797186576        2.71175213300819       -2.29648733765383
H            2.50413674737780        3.32571384414255       -0.76276344386804
H            1.10748472211269        1.04751022301834       -2.28308776321490
H            0.56690021510636        2.72317226458443       -2.28040132486192
H            0.52869657057400        1.78817711408439       -0.79471590587273
H            3.53159163822270        3.67075135140497        1.25461335307308
H            4.84479618646780        5.33737561646776        2.49319659064695
H            7.28335027826215        5.46846235050340        2.22162189667400
H            8.45758878685280        3.92503085222005        0.69572250013122
H            9.17519595694989        2.07284441019192       -1.00178948492820
H            5.03239329490035       -0.33939547851634       -2.45457082178255
H            5.74668851030443       -2.17789892858247       -4.17354235107960
H            6.91755196347030       -3.71799392135530       -5.70469523308585
H            9.35853590309661       -3.60400819874168       -5.96204660661780
H           10.67867498637434       -1.95890646847518       -4.70150374053174
H           11.42209113222114       -0.41489964552774       -3.41493522833699
H           12.16547088751586        1.93968646224485       -3.24763286486075
H           10.60776405605207        2.40772203646781       -2.62220574257130
H           11.07383780732518        1.17993804864522       -5.39681675205304
H           10.72788169447636        2.87983477275502       -5.08228179356131
H            9.50744934111856        1.64985067903400       -4.75888118600857
H           11.00482323302322       -0.91646594231124       -0.98131199759802
H           10.88948801618926        0.79096589883414       -0.66976889744194
H           13.36864222033290       -0.58980297132078       -1.84884653983010
H           13.20801786842476       -0.06885255301123       -0.17419567688967
H           13.25641020270319        1.12146486012453       -1.46616576709171
