42
 energy: -7.569742312547 gnorm: 0.000674523896 xtb: 6.6.1 (8d0f1dd)
C            0.98307904149979       -0.23984381484584        0.36350553619781
C            2.47562525424610       -0.10988011816995        0.11146349188265
C            3.07731583930123        1.14465764960794        0.74102106458350
N            4.44553871607397        1.25805467745367        0.50509176064730
C            5.16377101525254        2.15527197325008        1.05047539668783
C            6.59746292730228        2.27508130485917        0.89807919015016
C            7.30724988485854        2.95893626710147        1.86294154787038
C            8.71156269402919        3.01721305713141        1.85876066614894
C            9.44393020125331        3.70274025444118        2.85506869948438
C           10.80331136505286        3.71656602351445        2.83511241628282
C           11.53364296657369        3.04687892637852        1.82223575121997
N           12.94126330505568        3.06634381806914        1.81578156840110
C           13.71305273133485        2.26103881134235        0.87027520045320
C           13.70027309672931        3.86204252463196        2.77918640302908
C           10.82757406662787        2.37297816349448        0.84324345887518
C            9.42193965062572        2.34166639895504        0.83618867847316
C            8.69414660260790        1.67004482426929       -0.16341271011975
C            7.31340725981444        1.64765058972791       -0.18072555202149
O            6.69587931484461        1.02745803315674       -1.28687809713858
C            5.73872453660691        1.83165069329359       -1.94895334725775
H            0.56766572679854       -1.14234330350147       -0.09014776689251
H            0.43832612368577        0.61335307263959       -0.04472520543166
H            0.76532116882732       -0.27927305052271        1.43230696343845
H            2.68392062352654       -0.10227886658201       -0.96589970350122
H            3.00862921501690       -0.98887916248965        0.49567109686718
H            2.90523534289684        1.14044096317118        1.82400621927221
H            2.57793604324852        2.04088975082791        0.35411627591585
H            4.68090476372512        2.82112821506015        1.74549375927623
H            6.77454258068970        3.43251677527346        2.66796875937497
H            8.90636199778651        4.21111844988917        3.63684186976870
H           11.34022509760423        4.23642031511813        3.60818513177486
H           13.39015633346525        1.22243957133447        0.91438150667976
H           14.77567792949743        2.29270031382392        1.10265192397040
H           13.57229583695501        2.63592470680454       -0.14185070868162
H           13.35773657594348        4.89509893530892        2.76277037822055
H           14.76237806290233        3.85664305441880        2.54238281576500
H           13.56974880680989        3.45867560952119        3.78170155247212
H           11.35605973128789        1.86298457530376        0.06011092382061
H            9.22070835690332        1.18423470344887       -0.96333486574365
H            5.78497634689702        1.62655418105493       -3.01883850027511
H            5.94743881367747        2.88768867918535       -1.77349300111222
H            4.74367405216331        1.58417245325051       -1.58187054882603
