116
 energy: -23.615674470563 gnorm: 0.000499215645 xtb: 6.6.1 (8d0f1dd)
C            1.75495823687443       -0.40063210991900       -0.74310904388311
C            3.15969725730583        0.00944971791846       -0.33623978553424
C            3.51011777123837       -0.36878555520299        1.12322255283574
C            4.94324438867445        0.09625087800955        1.48097587440886
C            5.31311343272153       -0.16920162080328        2.92964603995494
C            3.34340491090970       -1.86547212583703        1.36391530724979
C            3.99571188257331       -2.93500713474398        0.79743977296348
C            3.68868613137411       -4.23474801503200        1.21103615176270
C            4.40402437222747       -5.39498542513717        0.63323108670599
C            3.68390419780269       -6.49478965938382        0.16903738152451
C            4.31609755545704       -7.57539502780908       -0.39711833964138
C            5.70417136479342       -7.60442290721229       -0.52543850402438
C            6.39076670813477       -8.76734602288748       -1.13289565742787
C            7.58650565420842       -9.24872267474866       -0.60171076076677
C            8.22588995202564      -10.33012438957508       -1.16815111027501
C            7.68541821416061      -10.95231503296091       -2.27540850615621
C            6.50216187799162      -10.48994904525139       -2.81528282614650
C            5.86018103964404       -9.40886949211398       -2.25104018804303
C            6.42925021577858       -6.51419815014169       -0.05896274111617
C            5.81261106238727       -5.41430558685635        0.52442997208393
C            6.64766389220750       -4.30394846419437        1.04750665804130
C            6.61954815855256       -3.96690674835037        2.39952797172246
C            7.38914495316675       -2.93155484879243        2.88255693417177
C            8.19624713022930       -2.21092429670869        2.02515806491075
C            8.23726654835310       -2.53236627286460        0.68307246519108
C            7.47405660275927       -3.57173024010676        0.19737924346806
C            2.70013620599452       -4.41970837794912        2.18711534291324
C            2.04241005424962       -3.35151755974594        2.75428347675910
C            2.36956752241944       -2.06787007486006        2.34210811578489
C            1.84941484975486       -0.77839681245066        2.79524131489714
N            0.93221372566089       -0.58709793070005        3.73848253142941
C            0.72809193940208        0.70113696109878        3.91958426061001
C            1.37222925377446        1.72552948484687        3.20741693491677
N            2.28996466917207        1.53590363927098        2.26342432891804
C            2.49982755101932        0.24807007465909        2.09073455092463
C            0.89504843979785        3.01471956873284        3.70092242810114
C            1.27335967469661        4.29443614055466        3.32164252541626
C            0.71438287478857        5.37231312215205        3.96868407673113
C           -0.21677558529098        5.19800205789716        5.00054172762095
C           -0.80735335377549        6.37048925356759        5.68598259145100
C            0.03072110661299        7.35370525411751        6.21073272959506
C           -0.47416568558445        8.43719772136712        6.88761709802451
C           -1.84800819957532        8.58642183261636        7.06963564668734
C           -2.39975706247817        9.74773051956343        7.80418811584815
C           -3.46200729515172        9.59101805129310        8.69327314005278
C           -3.97600974749123       10.67192644401898        9.37623691025919
C           -3.44120396692671       11.92999708594529        9.18500452578203
C           -2.38960241743866       12.10462422981174        8.30805003176124
C           -1.87283707944876       11.02562969333681        7.62404590537276
C           -2.68990983934900        7.61554291233102        6.54017954773115
C           -2.20430409291663        6.51359431016693        5.84633993739899
C           -3.16562381378161        5.54072575470344        5.27223868196707
C           -4.18807313295861        5.00764953317462        6.05528605623504
C           -5.09489030915287        4.11871386459616        5.52025688091970
C           -4.99871585784102        3.74409960719717        4.19494083109058
C           -3.99264131133761        4.26184407666578        3.40420480990524
C           -3.08765960209587        5.15458363659062        3.93500779826807
C           -0.57687559359552        3.90086614024579        5.37839539559965
C           -0.03854823928754        2.81819423491518        4.72035591907279
C           -0.24958814958797        1.31702138980035        4.92563619633395
C            0.13931174002725        0.91042648719860        6.36671589175087
C            0.04468225760559       -0.58000496516230        6.64149236760075
C           -1.68693011923670        0.88249414831499        4.54452456152002
C           -2.78163688057379        1.37249807122782        5.47547240527057
H            1.52678272185630       -0.12049162053932       -1.77380331748267
H            1.00802531238559        0.06899232549960       -0.10049161159454
H            1.61859070746089       -1.48010925645865       -0.65677839600195
H            3.28275663150382        1.09254832312653       -0.45005698538621
H            3.89880858043209       -0.44772459930883       -1.00390477675845
H            5.02406852007547        1.16735404929713        1.26367297482058
H            5.65172334785600       -0.40090590385550        0.80861076756952
H            4.64395110882402        0.36168244118825        3.60921631562592
H            6.33377785870205        0.14459735078520        3.15859741747223
H            5.23152502791518       -1.23106088021790        3.16701115774189
H            4.74722272576062       -2.77053158557461        0.04757081338602
H            2.61034702306827       -6.48146128233235        0.24767158578618
H            3.74062775032497       -8.41806146033726       -0.73974402735127
H            8.00217945079554       -8.77300450329654        0.26982985269116
H            9.14888659791883      -10.69196937817060       -0.74496703180522
H            8.18660638352412      -11.79791978484822       -2.71781864654029
H            6.08041984828013      -10.97437304453420       -3.68093907064817
H            4.94444999077572       -9.04098617927692       -2.68085891045988
H            7.50056059944298       -6.51929502761991       -0.14817029481218
H            5.98151384613200       -4.52587347269373        3.06237517522660
H            7.35830218118639       -2.68194842596625        3.93071971145845
H            8.79393469947567       -1.39760824823748        2.40352633158316
H            8.86778987105176       -1.96950127509223        0.01419865772994
H            7.50030564517956       -3.82349104253244       -0.84899179339509
H            2.47006781224172       -5.42135387041674        2.50682139022432
H            1.29078845504483       -3.49108568617799        3.51111725301338
H            1.99606800829681        4.42390811802947        2.53535563432024
H            0.98730235535253        6.37305132241318        3.68127646673061
H            1.09511532791115        7.24147961221601        6.09452358896095
H            0.19252174774990        9.17439962516859        7.30087359009385
H           -3.87143572799715        8.60817035944998        8.85186746800127
H           -4.79604441640405       10.53461668109075       10.06223636689141
H           -3.84433741102144       12.77474413950267        9.71962275248162
H           -1.97322153941287       13.08727239181757        8.15667861664716
H           -1.06127881643717       11.16466386350199        6.93071881948903
H           -3.75309651550092        7.73191433077082        6.64875709488617
H           -4.25699749699230        5.29588418322889        7.09019131341108
H           -5.87929411982810        3.71318841613666        6.13834679514560
H           -5.70696910403823        3.04647519406639        3.77838293076279
H           -3.91526850309061        3.96730759244401        2.37033257992551
H           -2.30531859227912        5.56381853278304        3.31938701859994
H           -1.26073794037422        3.75672233020482        6.19399616376058
H           -0.48292620872545        1.47014445299822        7.07359866207512
H            1.16331864015320        1.25869929026142        6.54656806862546
H           -0.97713382748189       -0.94517738820699        6.52945272188292
H            0.37061642914984       -0.83087907417633        7.65337878222118
H            0.66662655044032       -1.14666256592749        5.94681660775917
H           -1.70706893389158       -0.21146733724714        4.48224820422757
H           -1.88122047727487        1.22847583334027        3.52238746358933
H           -2.62606571908532        1.02903293528124        6.49895918092757
H           -3.76762820932357        1.02114612871132        5.16302509579155
H           -2.82428623880962        2.46091373936635        5.50002986620063
