125
 energy: -22.974766817836 gnorm: 0.000418957504 xtb: 6.6.1 (8d0f1dd)
C            0.50104956930890        0.85711344648922       -0.57506951988198
C            1.80027453318786        0.31200643142999       -0.00608363753023
C            2.82080862751772        1.41660296547093        0.37329056931178
C            4.11655597741937        0.78377176932589        0.94446214223212
C            5.16860339669980        1.80756324341988        1.33709400166351
C            3.13498815214851        2.30663379292232       -0.83184563493037
C            3.69670911817379        1.98667516225244       -2.04735470250830
C            3.91442937969824        2.98963217172844       -2.99556662489959
C            4.50769971153709        2.65463651514619       -4.31022994678477
C            5.59564052899932        3.37949430361182       -4.81179217077624
C            6.16788311114739        3.06696176818659       -6.02566032334325
C            5.64504364502040        2.01366745366755       -6.76441020301457
C            4.55108785672810        1.29061786364750       -6.28393509000923
C            3.98855520893251        1.60035360326132       -5.06564771474196
C            4.16617459271142        0.20834857944450       -7.29934686094252
C            2.71425764228872        0.41973867840819       -7.80048552919965
C            2.47075878045015        1.80497372002864       -8.37716801063380
C            4.34617464415812       -1.18441064035102       -6.63611984640732
C            4.11693027524398       -2.38067543986759       -7.54487345550609
C            5.17610644901690        0.43995527238373       -8.42990367760946
C            5.29699344392699       -0.17354533128512       -9.66072527715080
C            6.29943288812385        0.21693831422595      -10.54443769784997
C            6.48570380254666       -0.45762281485789      -11.91263741582818
C            6.33942478827987        0.59545711694131      -13.02641993705388
C            7.88687288362082       -1.09299188831965      -11.97923622168775
C            5.43993790766635       -1.56460753832823      -12.15112887777954
C            7.15791447109025        1.24766900647067      -10.16417969460516
C            7.03177906888565        1.88902656031381       -8.94892574660810
C            6.03207971248100        1.48478973030476       -8.07801594112104
C            3.55577206948057        4.30757745492575       -2.68659748329969
C            2.98281806004104        4.63077648085382       -1.47611555881927
C            2.76798007696680        3.62413564464020       -0.54333669578807
C            2.18532149008251        3.68078914549226        0.80161233892202
C            1.64307010715762        4.74946847073527        1.50347955579443
C            1.13767362992077        4.52996068768760        2.76587397946767
C            1.16686832749674        3.25942799016614        3.35452480437075
C            0.62094110212058        3.05067439838339        4.71498966557233
C            1.36439007544962        2.36793412603030        5.68555370868407
C            0.87834921333461        2.17872890710396        6.96089420497017
C           -0.37889241185447        2.67353087095276        7.28164746753902
C           -1.13820340523873        3.34451191874136        6.32056430569004
C           -0.64466881713012        3.53866836360143        5.04943103846544
C           -2.48038336088061        3.76532768698965        6.93067790756542
C           -3.65946996645684        3.11596204324790        6.16144611248711
C           -3.56343777128466        1.60119730599339        6.07745713358008
C           -2.57037360925236        5.31569755061443        6.91587633464826
C           -3.79875606696603        5.91018590510779        7.58438317934784
C           -2.38490853166091        3.21094166193081        8.35725722793665
C           -3.31650415592390        3.19955742224206        9.37603237529530
C           -3.01059881513316        2.61238849010290       10.60073751496586
C           -4.01203666786045        2.59379229043705       11.76630741953469
C           -4.32659553876887        1.13506219831641       12.14552011521905
C           -3.39989623087591        3.32454948086034       12.97577673475007
C           -5.33366403053577        3.29503347794526       11.39539731082371
C           -1.75643752236637        2.02516438422573       10.76272286122049
C           -0.82537921566539        2.00453151329063        9.74444666593923
C           -1.14321206517209        2.59815540256164        8.53282150644010
C            1.71359607951502        2.19190295919695        2.63771209845756
C            2.21075345636111        2.40427991843810        1.37115785357633
H           -0.20273112302244        0.06108780742159       -0.82917620343950
H            0.68044002886417        1.43927050764307       -1.48100436474631
H            0.00547833380694        1.51914888904920        0.13758599940503
H            2.27270020151655       -0.36667262149327       -0.72566736325127
H            1.59789923542807       -0.29539229223885        0.88367543897496
H            4.52349695829263        0.09074680470740        0.19901396656645
H            3.85018732854873        0.16476849294589        1.80899852272252
H            5.46559195454378        2.41626912064589        0.48090745501548
H            6.07089110466443        1.33817997442162        1.73589904472955
H            4.78901261082677        2.49105413130671        2.09899880182322
H            3.97673969273144        0.97145693546341       -2.26202945802646
H            5.99385273266918        4.18773055784281       -4.22267338595916
H            7.00559533780679        3.62447445638177       -6.40651305831434
H            3.14581123424071        1.04115922305154       -4.70199104810364
H            2.02681877241200        0.23048409668065       -6.96799570699185
H            2.48529695795295       -0.34181820778435       -8.55364096414126
H            2.66196997173680        2.58148098443642       -7.63410457261272
H            1.44345783466804        1.93060956632397       -8.72693454199756
H            3.13261726220633        2.00210739926816       -9.22266491658972
H            3.67187612542271       -1.23759634799392       -5.77320446638507
H            5.35740395240482       -1.22700520290551       -6.21417194904098
H            3.12348541143460       -2.36182640477927       -7.99542609034202
H            4.20531438997746       -3.32465594713656       -7.00158534494923
H            4.84584631175942       -2.41266363951606       -8.35561781127272
H            4.59399879019287       -0.93763191519049       -9.93273876277524
H            7.09531799554417        1.37480409159949      -12.93777251053869
H            5.36017329705902        1.07162743775417      -12.97957412285705
H            6.44622696739833        0.13934285146694      -14.01059218582951
H            8.66855877626089       -0.34209441413802      -11.87071196663899
H            8.04119958446112       -1.59877625952408      -12.93231005666584
H            8.01467368797672       -1.82657606714764      -11.18333764150088
H            4.42820780520028       -1.15971621756713      -12.13298827262052
H            5.51489028596781       -2.34521867682439      -11.39419206213397
H            5.58897769036341       -2.03404496262742      -13.12353601732005
H            7.93643108142311        1.55623633622181      -10.84016595998046
H            7.69076406460961        2.69338458521089       -8.67229234985966
H            3.72219892141048        5.07446353272400       -3.42352213955409
H            2.70231571407189        5.64357091820513       -1.24545969772275
H            1.62015158746333        5.72793409937960        1.05657228428052
H            0.71835130280133        5.34853869384087        3.32538778413407
H            2.34093680037459        1.99855989685525        5.42308127973892
H            1.45440826359327        1.65648383503095        7.70456684353470
H           -1.23578037639244        4.05282581371303        4.31372011941981
H           -3.70041782049826        3.54897937657973        5.15536814545701
H           -4.59889622327558        3.40220850869776        6.64643746212224
H           -2.64720828790711        1.29089558497689        5.57159532121497
H           -4.40373367533834        1.16493578564507        5.53244778106685
H           -3.54720030824115        1.15128207587382        7.07200518087852
H           -2.51710136442139        5.64766648172052        5.87230713433341
H           -1.66287975734806        5.70871908861725        7.38962472547451
H           -4.72211223564090        5.53345512795988        7.14190342085733
H           -3.82093539930694        6.99906519728968        7.49534437620161
H           -3.82572014699717        5.67916684205818        8.64996332886835
H           -4.28514276195243        3.62719287749776        9.20031484189473
H           -3.43047777808985        0.60740192466897       12.46986788158386
H           -4.74206289158538        0.59709340462980       11.29354333774502
H           -5.05125711987784        1.09105290685716       12.95851450464525
H           -2.48786533220230        2.83522406223134       13.31542227229891
H           -4.09760457464967        3.34558143425672       13.81290103468584
H           -3.15144339217909        4.35393383228031       12.71781339785782
H           -5.82049228160456        2.79762398373289       10.55668256243656
H           -5.16324118197666        4.33802035360164       11.12880331982130
H           -6.02848019144518        3.27931518899767       12.23512257189989
H           -1.51119677595429        1.56724545911758       11.70529178378845
H            0.13313203925674        1.53347191749659        9.87540700503909
H            1.73123692864709        1.20651875561960        3.06638742350384
