102
 energy: -19.432206478877 gnorm: 0.000859145497 xtb: 6.6.1 (8d0f1dd)
C            0.77176516783071        0.75514237070017        0.75708163237392
C            1.96434339477556        0.20656517485157       -0.01018908495913
C            2.92621901865871        1.31601337682025       -0.52160193287060
C            4.09373555539963        0.75778798635564       -1.38407337524013
C            4.96910314622487        1.84587279136630       -1.98538854465998
C            2.12727811206576        2.30034071638226       -1.36620174344168
C            1.44063621341263        2.06648690331376       -2.53659464547531
C            0.78287325111071        3.11140525359683       -3.18373543693641
C            0.05401676938969        2.85357633293818       -4.42142637657209
C           -0.60282329458526        3.76817619774808       -5.19540401826840
C           -1.22073998583395        3.20842775905058       -6.34700058987945
C           -1.04143298674113        1.87277712247162       -6.45817094446285
S           -0.10172368845843        1.26704266722762       -5.14218486565983
C            0.85148015012548        4.38738311150625       -2.61543808378697
C            1.53970468259166        4.61975970918119       -1.44464164006436
C            2.18383674646679        3.57047548282089       -0.79319399878088
C            2.98140725750482        3.49507577174950        0.45240176334583
C            3.44599392121848        2.18017900688604        0.63096425647078
C            4.21564720630663        1.84473074320714        1.75455984451807
C            4.51661100513854        2.83852899119377        2.70070455507640
C            4.06836668328531        4.15395752219166        2.52740369431921
C            3.28524326154963        4.47203952750277        1.40836928694704
C            2.84172035109179        5.93471255166217        1.50455732569299
C            1.29504961830098        6.03681149139528        1.62699412528686
C            0.73192673986539        5.21875263635022        2.77870223474161
C            3.45556717612162        6.73956398645002        0.31657966428285
C            2.84154659127688        8.10454824196191        0.05455313135964
C            3.47529908851951        6.40245765130489        2.81219506374750
C            3.38300396556829        7.63139613461304        3.42966226384790
C            4.06377306992358        7.86616541585509        4.62507960722760
C            3.99558711699239        9.15521232588748        5.30615697294045
C            3.31040669382186       10.26383996356310        4.89584141173581
C            3.43554361557722       11.37501904511647        5.77389721046167
C            4.21125253598719       11.12294315302959        6.85235160035515
S            4.81070121961548        9.50420738839104        6.81427156031841
C            4.82830815682114        6.82933090216429        5.16447089534508
C            4.90782710911555        5.59589301024030        4.55888435242278
C            4.21457381227689        5.35902736223939        3.37469172993473
C            5.28602194053220        2.21355941077579        3.86635870670809
C            4.47023473577964        2.31687250912620        5.18656528460056
C            3.07365706142447        1.72559141243421        5.07352978283079
C            6.71746738312921        2.83237726684842        3.93496563983047
C            7.47439328555087        2.60724182664899        5.23352051104537
C            5.38869531922522        0.74739901075847        3.46220291544705
C            5.95059399421960       -0.30153398976341        4.15611068425129
C            5.95037788845210       -1.58563493094793        3.61471195343999
C            6.55643113711104       -2.68591672766591        4.35738867113877
C            6.69971340652493       -3.97945839503625        3.94079083093840
C            7.33659303357510       -4.82203532218692        4.89232435763372
C            7.67919437688786       -4.18224451049558        6.03350308458347
S            7.22637829249444       -2.51733968762723        5.96483732952758
C            5.35980992156373       -1.77247393968940        2.36203809175669
C            4.78120422186785       -0.72768819769145        1.67577753572472
C            4.77927768883963        0.55479798647748        2.21981980840486
H            0.10929046964371       -0.03832023215939        1.10997467699055
H            0.17669115340776        1.42720843399936        0.13627188576159
H            1.09400537741227        1.32668158558689        1.62945690529454
H            1.62237345385653       -0.38004495985820       -0.87033492233425
H            2.50764335724157       -0.49553447366096        0.62428363561812
H            3.67089636458438        0.13217574628429       -2.17828700467118
H            4.71462707284949        0.09028294350945       -0.78470623138677
H            4.39177523384410        2.50460593452379       -2.63654190414354
H            5.78826415505397        1.43388207810509       -2.57891367130547
H            5.40921177627670        2.47135153003079       -1.20649430956531
H            1.41181206808794        1.07798503052994       -2.95557127500810
H           -0.65161480892534        4.81973558731355       -4.96037183748702
H           -1.77911251590551        3.79570175056060       -7.06195731953664
H           -1.42347380007966        1.25614919522294       -7.24991015036268
H            0.35521934073452        5.20571483789412       -3.10631344043025
H            1.58266228613673        5.61825758550034       -1.05672851069075
H            0.82409025222030        5.71960829354825        0.69464051617508
H            1.02230209797611        7.09020555547002        1.75236707160494
H            0.96363768167585        4.15874076346475        2.65915384320440
H           -0.35369191088181        5.31073894431106        2.85689327564438
H            1.15804361863921        5.53342180366743        3.73304947375948
H            3.41565150028400        6.12845567452400       -0.59039679538392
H            4.52931364421932        6.84649734627064        0.51414362994163
H            1.77986753516192        8.02783452209628       -0.18520974738331
H            3.32375698970595        8.61090110691320       -0.78485881482797
H            2.93419173814843        8.76168955537883        0.91911565910459
H            2.77180688014526        8.40097578793153        2.99941003349439
H            2.72925543373210       10.30157939595225        3.98789284431471
H            2.95806595397566       12.32740202508270        5.59314089417952
H            4.43631738783392       11.82236389990013        7.63542373458051
H            5.36318500926442        7.01158471314413        6.08005825762226
H            5.51888865491940        4.83539654184001        5.00329008028489
H            4.39652362491633        3.35970766331175        5.50071291351486
H            5.02489526303191        1.80726765316420        5.98181412411669
H            2.48965043876787        2.23809040293253        4.30678546122812
H            2.51894882978586        1.79747917261618        6.01173680323340
H            3.11206950927344        0.67107226268066        4.79449121811232
H            6.65729337949264        3.90276308027461        3.71466317306131
H            7.29150226884687        2.42354128175610        3.09429344709584
H            6.94734406843298        3.03917792597718        6.08575513360104
H            8.46757212229499        3.06173859316684        5.20734717393667
H            7.61475205512069        1.54641415609476        5.44075313063268
H            6.37699870762860       -0.14234479559895        5.12790307190981
H            6.36425601340678       -4.33407937552266        2.97891841390938
H            7.52670174204999       -5.87150752034901        4.71777047633064
H            8.16728097842495       -4.63157900084848        6.87785833792139
H            5.35083834868583       -2.75741241352041        1.92978291349812
H            4.33902706307918       -0.92257709027438        0.72033963527237
