73
 energy: -14.344317036579 gnorm: 0.000876680789 xtb: 6.6.1 (8d0f1dd)
C            0.37761365727108       -0.06526667189377        0.05257534262809
C            1.88144960451214       -0.06599309970049       -0.16401282445961
C            2.69782554740034       -0.04685684109856        1.15486434607953
C            4.21908234716291       -0.05479430669429        0.85105549045757
C            5.08727094627039       -0.04933106031428        2.09768193955521
C            2.31730750375303        1.15947723282276        2.01638079166072
C            2.42014760150634        2.50454889952310        1.75192505600786
C            2.00136833113868        3.44066854337391        2.70741752653789
C            2.12335906219287        4.85123466735317        2.40866636074782
C            1.81149876665102        5.86218619192327        3.24457453951824
C            1.94488590180413        7.24723549559387        2.92385206137734
C            2.37610086178527        7.79552827490183        1.73927940794341
C            2.39772772073316        9.19869622136856        1.73650116045924
C            1.98666544684587        9.77182847382763        2.91725826044254
C            1.89651920485486       11.15767671483052        3.23910986210349
C            2.20294072826200       12.20163435273640        2.43046974597724
C            2.66054165765626       12.03806627786945        1.12853183433721
N            3.04291726414187       11.89866889522317        0.03910468905676
C            2.04097861945808       13.56945876308476        2.96321064270267
O            1.63270222861554       13.69830616678961        4.10500020138784
O            2.35865317522278       14.61513342352672        2.14510042357929
S            1.56063681801086        8.51946985998555        4.05068683868225
C            1.47725729301041        2.97166999450871        3.92368652249431
C            1.37006978860156        1.62680234059793        4.19100756252895
C            1.79229272887692        0.71177713399739        3.23385338520703
C            1.79378061646489       -0.74862771356734        3.25505198114934
C            1.37503958473705       -1.64008678898132        4.23676173557915
C            1.48821552539309       -2.99039156990720        4.00526867190119
C            2.01906798715584       -3.48804720871292        2.80490114961608
N            2.13469118731814       -4.87776513087324        2.56717473736121
C            1.47635907192635       -5.82699678979328        3.46323866840183
C            2.90293824691117       -5.40382608225610        1.47319708302184
C            2.34874742736749       -6.32282610993557        0.58424187915196
C            3.08435783914665       -6.81071751055257       -0.46598507187196
C            4.40610752808628       -6.40811905448980       -0.67442193398660
O            5.08029274534345       -6.95255715390765       -1.77473841741791
C            6.42185330847638       -6.55137727104285       -1.90385172963317
C            4.96026267217553       -5.49199053490924        0.22372908838626
C            4.22326102141725       -5.00296620207859        1.27324057574839
C            2.42630239131711       -2.57777697314773        1.82262838566105
C            2.31726587414844       -1.22816370306140        2.04915523769043
H           -0.17272174151523       -0.08185666853333       -0.89017986090528
H            0.05897092897047        0.82046719700304        0.60417495628311
H            0.06254736885161       -0.93409288473248        0.63245502250574
H            2.17598348384623        0.79880056738101       -0.76861158976639
H            2.17799466219848       -0.94673215216959       -0.74419376929585
H            4.45384030599164        0.81207137868919        0.22367839016484
H            4.44671699887368       -0.93374320251361        0.23780029767577
H            4.89179512953421        0.83215367724082        2.71019932332908
H            6.15207081046988       -0.05308876938870        1.85646487310613
H            4.88809812345431       -0.92255012951693        2.72082675916798
H            2.82434667654153        2.83578130481818        0.81293930063185
H            2.50245781255693        5.10028564099847        1.43449254300269
H            1.44316613698282        5.63762698897555        4.22857909195871
H            2.67026436299579        7.20525483659316        0.88597323644032
H            2.70946684798084        9.77469783380631        0.88072812862738
H            1.54962688884962       11.40178517345454        4.22952189378643
H            2.66582212969842       14.30172475445104        1.26913999364401
H            1.14692722446344        3.67737469809438        4.66408921454236
H            0.96625899923222        1.27577465547110        5.12409150529515
H            0.97135617959543       -1.26608088792130        5.16086449476671
H            1.17112628460296       -3.68229741735520        4.76443232380655
H            1.92511887746615       -5.78128161229524        4.45324106781094
H            1.59021836599401       -6.84268634258164        3.09029094561588
H            0.41461955051239       -5.60074719208807        3.53669899803641
H            1.32639970142173       -6.62873356319664        0.72072908790565
H            2.65504395923569       -7.51466923388230       -1.15656071615132
H            6.85074523262838       -7.05640526745186       -2.77001641008025
H            6.98214585560344       -6.83805035150701       -1.01321403755673
H            6.47341761739717       -5.47328357393450       -2.06051215121931
H            5.97506950929426       -5.16399898753919        0.09241551027411
H            4.65975814345520       -4.30413823645153        1.96544359644920
H            2.81068173970084       -2.93269238081245        0.88535477237448
