97
 energy: -18.615194656743 gnorm: 0.000402734747 xtb: 6.6.1 (8d0f1dd)
C            0.91503005086864        0.20863415500361       -1.23727593474426
C            1.91406071785283        0.31472992389306       -0.09658639663653
C            2.96535745721735        1.44944819012237       -0.23011922432433
C            3.84334039722222        1.27052142293360       -1.49489652911330
C            4.94756736279872        2.30800620315446       -1.61420405185105
C            2.31093131373049        2.83353256166223       -0.20562435021782
C            1.48795291867202        3.44383209572648       -1.12023529914537
C            1.02876054803129        4.73107995487439       -0.86846824287382
B            0.08753631913655        5.37608635021232       -1.91000222412481
C           -0.74530970228322        4.44025107318992       -2.84814977128091
C           -1.63419450681398        3.53169203306819       -2.26700064054089
C           -1.85169376897266        3.48700081651397       -0.79484032824189
C           -2.31754815518418        2.65074795508107       -3.08420363311737
C           -2.13869474993838        2.65012291615039       -4.45981573681400
C           -2.89909948314915        1.70787977602970       -5.32658661888843
C           -1.26369797452376        3.57182171136483       -5.01597577734260
C           -0.56198046595085        4.46975732984680       -4.23138658638616
C            0.39701175186936        5.41949939293727       -4.85644067220802
C            0.02686010201656        6.93279172801821       -2.04243025651263
C            1.20673019274469        7.63910706018991       -2.29141371716029
C            2.51465703178328        6.94386871895311       -2.44097979412411
C            1.15285802184748        9.01772409228375       -2.38193674831684
C           -0.04297929954140        9.70781107530322       -2.24398787187348
C           -0.08933674319529       11.19375888014248       -2.33237856973149
C           -1.20187884352976        8.98536509866018       -2.00270159024074
C           -1.18802204572750        7.60553452250631       -1.90218169879954
C           -2.44548601853699        6.86256429753170       -1.62036871261964
C            1.41101238310229        5.40608204856360        0.28824073819049
C            2.25756626100697        4.81614424456817        1.19611568555630
C            2.71454414708470        3.52233128890283        0.94877933715828
C            3.65208149474060        2.69624245656562        1.69945860031063
C            4.36341190424331        2.96708561896597        2.86574210163610
C            5.23945300976018        2.02398701436380        3.34540808939182
C            5.43220327928151        0.79744229508693        2.68884771808970
N            6.36092269834666       -0.15797699943038        3.18557630026067
C            6.68505266390178       -0.20863896824609        4.58173920387007
C            7.98798413048702       -0.48119673607935        4.99861567178837
C            8.30272486109716       -0.53042278896745        6.33729880443214
C            7.32374934769578       -0.31256972232379        7.28804708257279
C            6.02617435416390       -0.04778805123208        6.89297407926233
C            5.70824884646787        0.00236698257331        5.55500469088623
C            6.99100449021259       -1.08664299737072        2.29144759034963
C            7.22022118467012       -2.40575142304595        2.68255926247499
C            7.82035420950442       -3.29951228319355        1.82542224113366
C            8.20709335363333       -2.89540708605683        0.56167339687737
C            7.99329442192288       -1.59061511681724        0.15961257722559
C            7.39391788014591       -0.69436896829642        1.01452618113705
C            4.70569925351035        0.53704937301326        1.51977119219094
C            3.83292796202122        1.47751190397122        1.03217366567027
H            0.22380087744973       -0.62541174352151       -1.09430235052134
H            1.41124578287247        0.05293889103260       -2.19626436114782
H            0.30919178011473        1.11068812745967       -1.32514029037395
H            2.45136331795478       -0.63403754200007        0.01729580432611
H            1.38230003348023        0.46058756980144        0.85116876533359
H            3.19964558729817        1.30965988675433       -2.38021306889932
H            4.27171348731237        0.26169335712616       -1.48246974366098
H            4.53663162204158        3.31878185500578       -1.64979797646075
H            5.55061172274619        2.16540572552836       -2.51382568334014
H            5.62218977644742        2.26735914531282       -0.75700495761401
H            1.21826599160125        2.94876824188452       -2.03432465993845
H           -1.36333701396446        4.32276016248024       -0.29406804801475
H           -1.45140513513073        2.56590607956109       -0.36938493880760
H           -2.91538214545500        3.53319063981288       -0.55663645635516
H           -3.00256610670229        1.94889826925318       -2.64205061202245
H           -3.16002001017281        0.79700104417143       -4.78558164615303
H           -2.31307500599202        1.41707348022691       -6.19984373969059
H           -3.82398051144117        2.16661307531896       -5.67936953258980
H           -1.12523872100727        3.58340911461360       -6.08271819668288
H            0.31020563858540        5.41468296827393       -5.94392434407795
H            1.42427843096107        5.15385723755740       -4.60502839208990
H            0.21384778857419        6.43954201709204       -4.51812745873966
H            2.38120362860759        5.87578211061496       -2.61189275365891
H            3.12236845248591        7.06391655658802       -1.54302817729711
H            3.07684668330323        7.34561564817762       -3.28530800093820
H            2.06015665981557        9.56667824964926       -2.56274075471238
H            0.87380408046857       11.60524996589421       -2.63780576070487
H           -0.34880633970712       11.63155727924590       -1.36724093966318
H           -0.83491357913630       11.51723194067065       -3.06039197411735
H           -2.13146243022903        9.51420478137790       -1.88641911224563
H           -3.31099526575093        7.52663369318623       -1.62813418768629
H           -2.40231681173030        6.38691470434993       -0.64017177826235
H           -2.61860530472527        6.08935570368861       -2.36929922520810
H            1.03958559815700        6.40220677029504        0.45488175627416
H            2.57387630466231        5.33639007749509        2.08304222225814
H            4.23089868229064        3.90984071071496        3.36681699378548
H            5.81670594534561        2.23062705025872        4.22928457263543
H            8.74789753454434       -0.64106692083613        4.25363856932477
H            9.31491601491766       -0.73749557812832        6.64484520012680
H            7.57158555145065       -0.35021941037272        8.33639929671870
H            5.26142259988939        0.11830453284782        7.63428975710747
H            4.69601819582140        0.19192801069750        5.24270920163084
H            6.90779398018122       -2.71719253178497        3.66409329844292
H            7.98734765681551       -4.31704720605904        2.13963930311864
H            8.67628163787630       -3.59673163142803       -0.10907738935414
H            8.29783242977259       -1.27396238558529       -0.82477001825027
H            7.23974219286123        0.32668728245330        0.71161564194552
H            4.82616414889916       -0.40041842768881        1.00976291303644
