95
 energy: -17.912882819914 gnorm: 0.000682372141 xtb: 6.6.1 (8d0f1dd)
C            0.66325523029242       -0.93930813164138       -1.70971193406952
C            1.21732627872155       -1.16972427558228       -0.31347379357998
C            2.59106483850713       -1.91067431888698       -0.24036073653010
C            3.59808852806997       -1.53226159262399       -1.36315633362441
C            4.92593903417314       -2.26402701707730       -1.24648744030505
C            2.34368449022816       -3.41131680706709       -0.28056503086898
C            1.80188069044794       -4.17760147541922       -1.29916579591945
C            1.57853610943671       -5.52090724437747       -1.08744122414403
Br           0.84864978096617       -6.58270413918949       -2.47234731922776
C            1.87761247717126       -6.08618676377851        0.13553828449598
C            2.43096570449425       -5.32506097453800        1.14934985728343
C            2.70741121670620       -3.97821074697450        0.94284684094196
C            3.31770276847311       -2.93415772182636        1.80777693247941
C            3.20553993747248       -1.69933352766966        1.14596145322452
C            3.71529356055640       -0.52390215316926        1.71022795301932
C            4.32856196515589       -0.56292007005585        2.97396837552905
C            4.35685471698787       -1.78013531187465        3.68161887531982
C            3.96209438696529       -2.98681075656249        3.05866735365242
C            4.54195656150611       -4.16004139552966        3.89109465175908
C            3.50007028212301       -5.22676197663609        4.34155423314881
C            2.13107956629574       -4.64732445732270        4.65607015056264
C            5.77771733857643       -4.79766437067369        3.19486737004213
C            5.53298805967737       -5.43790969769806        1.84066765350030
C            5.04552211450642       -3.46102370690331        5.15412490985369
C            5.52350639895811       -4.02392691073620        6.32008591719846
C            5.76585919646256       -3.22071378632045        7.43600823801604
C            6.27276990987988       -3.77493814198193        8.68704988121356
C            6.56619665196630       -5.08418778295123        8.94525328762757
C            7.04415186875755       -5.31651822450439       10.26396877863090
C            7.11828428029414       -4.19446640925406       11.01486528242184
S            6.59835464345322       -2.81676270064150       10.11378679585517
C            5.46926226395018       -1.85879664735382        7.34466381431119
C            5.00004510218365       -1.29721874241543        6.17845469038871
C            4.84312612418397       -2.08683375296004        5.04334308095756
C            5.07139620520994        0.77748565707393        3.18791417128194
C            4.68910220088751        1.53816399843480        4.48565298350884
C            3.19841976036458        1.52021436666067        4.78016886593550
C            6.61237399997503        0.60520816826600        3.05443840554474
C            7.27815080032683       -0.31848714746864        4.05872835256203
C            4.60608768156387        1.61574455858861        1.99923884246844
C            4.87341802062848        2.94120386217511        1.72865433966171
C            4.32586522021086        3.54775658421138        0.59770814572984
C            4.58034325620531        4.94892806777935        0.27892430462074
C            5.35250745184221        5.82390160476060        0.98966898317935
C            5.40913835597787        7.12837388176239        0.42722375505781
C            4.68598217475314        7.25674546506722       -0.70802862424289
S            3.91288970879947        5.76752466960904       -1.11525916828160
C            3.50877439970777        2.77746305370955       -0.23227547081488
C            3.24691308654977        1.45274500281039        0.03516237860034
C            3.80792545104939        0.84500074575590        1.15597832634886
H           -0.30142026330904       -0.42726110621785       -1.68312005491932
H            0.51239697472999       -1.87763243660574       -2.24341340279390
H            1.33458753860652       -0.32603905689953       -2.31283354973089
H            0.50029639345347       -1.75230389508790        0.27820912577275
H            1.28912040124457       -0.22122987706974        0.22800900856064
H            3.77723789287247       -0.45539029186791       -1.35821006291925
H            3.13883829462187       -1.75029125865951       -2.33339222329792
H            5.41502184106478       -2.04334378031665       -0.29579575258070
H            5.61886926022434       -1.98803727627398       -2.04445966876087
H            4.78672609525305       -3.34563085282554       -1.29194769330820
H            1.56368892214283       -3.74171820072744       -2.25293568220224
H            1.67005963573246       -7.13277628241740        0.28869847582632
H            2.60399104694044       -5.77454782702630        2.10166880130510
H            3.89479623605976       -5.73229840449934        5.23092458156514
H            3.43986879746691       -6.03381892128095        3.60998126580101
H            2.19862640734013       -3.88337957430681        5.43303499004450
H            1.43038944593275       -5.41036033085471        5.00217871842699
H            1.69049498561619       -4.17091492139263        3.77867707317514
H            6.21351352776983       -5.53273571560799        3.88139135665925
H            6.53783733073734       -4.01347528272847        3.09457100103227
H            4.83716302515899       -6.27464921935256        1.90721059369117
H            6.45567588702539       -5.82637517946556        1.40316871144657
H            5.12110884988651       -4.71982058060304        1.13092982543689
H            5.69647113408729       -5.08255628973150        6.36905676377459
H            6.44555014743800       -5.87464123517961        8.22128150183440
H            7.32095889360630       -6.29599820880532       10.62694038232497
H            7.45249170464425       -4.14680196838233       12.03419379122672
H            5.60073218181199       -1.24617679959233        8.21934423014959
H            4.66609350663911       -0.28042540124930        6.18156167742614
H            5.03205630741239        2.57482981849743        4.38727419702214
H            5.27361962570755        1.15781551202490        5.32476624435028
H            2.63227119684461        1.96895303629609        3.96176301969524
H            2.95201178535720        2.06880355587929        5.69193772266854
H            2.82908704350515        0.50012331449311        4.89869839319689
H            7.06878104126846        1.60053104438786        3.10650867622159
H            6.81808969182266        0.24896198229889        2.03783045681384
H            7.10391482188798        0.00431170658059        5.08557206369694
H            8.36035845413372       -0.36104379097307        3.91528040350392
H            6.90599349123606       -1.33917171261033        3.96687621544713
H            5.50487794116250        3.50285529368947        2.39079062153310
H            5.87239864890144        5.55669451699696        1.89620360988520
H            5.97627984580065        7.93679796461397        0.86597033497459
H            4.59355391261767        8.15426592731829       -1.29027744048911
H            3.07701614305606        3.24426181146421       -1.10017891296165
H            2.59796410287859        0.90935938705589       -0.62238303485519
