49
 energy: -9.619988940442 gnorm: 0.000864212969 xtb: 6.6.1 (8d0f1dd)
C            1.01912536705671       -0.45433671701140       -0.46207290370178
C            2.25957024953791        0.03724202548452        0.26452481182004
C            3.03157253902379       -1.08750035311977        1.00291351403910
C            4.27627068790197       -0.50821719746171        1.72481256317401
C            5.08550330279228       -1.55439983739080        2.47264865863865
C            2.11877997786915       -1.81580492627339        1.99179601494882
C            1.45479659054170       -1.34141900143326        3.09810837656986
C            0.66584554908512       -2.20526330870222        3.86845381688544
C           -0.01800374799196       -1.66303793376089        5.02878263281322
C           -0.82161091366174       -2.30507419561887        5.90720567285658
C           -1.13539813873659       -3.66243672875221        5.82945955846227
N           -1.36434152405849       -4.79692856818768        5.71482800352151
C           -1.36925154453563       -1.56319177188124        6.95614024871646
N           -1.81116210066048       -0.91910174429179        7.81847563141724
C            0.57807563180004       -3.55141988814477        3.47963673012740
C            1.24038723701032       -4.03261769789205        2.37629573036336
C            2.01793094652422       -3.16133071031321        1.62378185465603
C            2.82126099903408       -3.39843070388383        0.42721616792911
C            3.03884704127707       -4.56511997343565       -0.29733912137117
C            3.85933633572450       -4.52277931893775       -1.39868860472834
C            4.48272656631843       -3.33201731103918       -1.80966569178978
N            5.32245929849655       -3.31091938660789       -2.93556930571806
C            5.70938824256798       -4.53832100838255       -3.63034169305073
C            5.84791764971995       -2.05813155721793       -3.47629119452126
C            4.25125515696750       -2.16395886016432       -1.06892247352461
C            3.43229944722790       -2.20216283364485        0.03339153987056
H            0.49587096030234        0.35504728395407       -0.97524292415650
H            0.31294388306816       -0.91512614830236        0.23042353288223
H            1.27282545456791       -1.20799836242417       -1.20921095212912
H            1.98927670094550        0.80985508951430        0.99290798102401
H            2.94261371726940        0.52268679079271       -0.44139260981540
H            3.94484094236249        0.27596783132007        2.41452075985508
H            4.90530141500817       -0.00297078431222        0.98351323990329
H            4.48076285383768       -2.05159012525852        3.23261685703998
H            5.95288833536244       -1.12097551327744        2.97438576927124
H            5.44974070523816       -2.32908414521819        1.79618399510713
H            1.54350068713831       -0.30557602131552        3.37026499453564
H            0.13746923971832       -0.61290936273898        5.21061045939659
H           -0.01986337043908       -4.23128385802007        4.05649331416682
H            1.16633917841839       -5.06714376969620        2.09095392543369
H            2.56546311959188       -5.48096061564375        0.00929343220847
H            4.01998000313890       -5.42025310326203       -1.96835705724716
H            6.05549008654565       -5.28061894871401       -2.91389260330078
H            6.51833382986722       -4.35028421657047       -4.33340791598250
H            4.85993943447064       -4.93957700988355       -4.17965130800012
H            5.04665970193800       -1.32948581477172       -3.58008126442004
H            6.28861770927064       -2.21263810457886       -4.45878689232765
H            6.61151765060985       -1.65702252450539       -2.81304491498869
H            4.71933691493903       -1.23926905902090       -1.34814035686180
