103
 energy: -19.514552691826 gnorm: 0.000575021895 xtb: 6.6.1 (8d0f1dd)
C            0.89235023285060        0.39075216093182        0.02887015688815
C            2.32980697693263       -0.10089552873263       -0.03040250864616
C            3.00166784070017        0.13491642111965       -1.41253117437734
C            4.44811922026507       -0.43159434561700       -1.48924290418380
C            5.07205562535301       -0.29904455030222       -2.86948736641965
C            2.15961719654375       -0.54363528159633       -2.48666876706267
C            1.86254979554969       -1.88458873515690       -2.63086953591119
C            1.10723822509945       -2.29224770113538       -3.71193307963055
C            0.66510347775481       -1.36612039895649       -4.63879055330497
C            0.96254243077834       -0.02577013818450       -4.49557457779422
C            1.71044594694202        0.40590744876744       -3.40359033878516
C            2.18516520636047        1.74416371303465       -2.97504608360086
C            2.96031494246982        1.61380725426879       -1.81008494192327
C            3.51368497275845        2.74693445269747       -1.19474165013600
C            3.27939238616881        4.01392616457490       -1.75421262460916
C            2.51816455404534        4.15420088948627       -2.92133520994382
C            1.96117917812172        3.01407635086812       -3.51940698956690
C            1.12216323602117        3.43928055210542       -4.72783248181129
C           -0.37747448410923        3.08887325099353       -4.51305133137863
C           -0.94877630801502        3.66870226890951       -3.22863112248037
C            1.75134952380646        2.84441345359352       -6.02682480654946
C            0.86204321593432        2.85410141300908       -7.25902476429133
C            1.27981910395160        4.95734437814154       -4.74044393605331
C            0.71825585961557        5.87839658501843       -5.59759988693783
C            1.00756261766059        7.23734177792547       -5.45477783301170
C            0.45535027931926        8.24562789413791       -6.34372317183943
C           -0.32828378291816        7.99807468443477       -7.40720224536761
C           -0.85658266642453        9.00510923574713       -8.28626744165390
C           -0.67187010531350       10.35866812886278       -8.20858565032069
C           -1.32983312277634       11.08288493665441       -9.23728070219470
C           -2.01421334176436       10.29365754023199      -10.09790046870194
S           -1.86660284941461        8.62882904268595       -9.66235676252116
C            1.86763141062402        7.62360147737609       -4.42114748996043
C            2.41505087408422        6.70487320574207       -3.55448271113285
C            2.11847244397287        5.35133168134968       -3.69509442874341
C            3.92030943819712        5.08564689747605       -0.86991239724265
C            2.83651267475734        6.02378858170394       -0.26658626258033
C            1.75082356868425        5.27400268254751        0.48967216870390
C            5.04131046625008        5.81681280849753       -1.67381719101450
C            5.51447539252017        7.14065214931285       -1.09682662108353
C            4.55283612288881        4.27145758303623        0.25358657793193
C            5.24352467030507        4.71719989603681        1.35923831513224
C            5.76155623008746        3.80527187376164        2.28085605938919
C            6.50201494869909        4.29716698574121        3.43058841283792
C            7.12931718510977        3.53278873596275        4.34076539466340
C            7.86946638859241        4.04237806393809        5.46276905803723
C            8.05542184881883        5.35265680944188        5.81068121259852
C            8.84513741841021        5.52498898051829        6.97784909444212
C            9.26204531823238        4.35840138154616        7.52309694062579
S            8.68998322783065        3.00894967180136        6.61007553217550
C            5.54546568646427        2.44270417649716        2.05083352037805
C            4.83939565329439        1.99959523214496        0.95487023869092
C            4.32349943646859        2.91022930890826        0.03591610753587
H            0.43663385296193        0.21328511000649        1.00563954063132
H            0.27207789944714       -0.10778623785483       -0.71814204666788
H            0.83449307029006        1.46247245577812       -0.17096055728188
H            2.37272592876402       -1.17186375228094        0.19804565360023
H            2.90899560066284        0.38713664477559        0.75507316939239
H            4.42558635814483       -1.48407058560325       -1.18467301757609
H            5.08526407607833        0.07015546778079       -0.75946656769899
H            4.48676627880319       -0.83029853743376       -3.62214288232470
H            6.08813646193030       -0.69869585504221       -2.90213384475247
H            5.11944660879413        0.74626150312714       -3.18063776316499
H            2.22378904034666       -2.59518529377481       -1.90798885996331
H            0.86791615737761       -3.33577234078163       -3.83691233855654
H            0.08478854100907       -1.69587443428990       -5.48534741124846
H            0.62601177597174        0.66480478286844       -5.24330046608261
H           -0.51237051556156        2.00563206864263       -4.51115537710637
H           -0.94936322876758        3.45640367410582       -5.37194299764144
H           -0.41432521230060        3.29199628148722       -2.35447185695881
H           -2.00494665342132        3.42148840264394       -3.09959581398295
H           -0.86173564899049        4.75660815524250       -3.21245059553381
H            2.10094449441005        1.82749043897099       -5.82324818970627
H            2.67333430366146        3.40328731194327       -6.22935048260082
H           -0.04749600204927        2.27186143121351       -7.10266523053953
H            1.36945996065760        2.42781687033232       -8.12769805772420
H            0.55941531717417        3.86516053120101       -7.53145355681664
H            0.04266262188603        5.54552272126541       -6.36107834637405
H            0.71073670186973        9.26700044087996       -6.12641571197323
H           -0.58603166113049        6.98270717855227       -7.64594601034674
H           -0.08062189812476       10.83398754770451       -7.44173504435076
H           -1.28639419053202       12.15907672369204       -9.32322076125388
H           -2.57824627511041       10.63876444443021      -10.94397494708601
H            2.10266745415002        8.66837543627461       -4.30825154747478
H            3.08065187184764        7.04688983959198       -2.78677461754522
H            2.37840090609832        6.62233644114781       -1.05633794957621
H            3.32605454169932        6.74060791273628        0.40148702905510
H            1.22761578627561        4.57332677555486       -0.16379830427585
H            1.00338730315002        5.94848153868099        0.91349311573784
H            2.17118694145713        4.69147240528034        1.31145585030810
H            4.70990456538428        5.95407788118897       -2.70788086960220
H            5.88780208010394        5.12432623144995       -1.75946686959071
H            4.70157506844462        7.86607000170419       -1.03616065077351
H            6.30023265316740        7.59092963188394       -1.70801227647875
H            5.92065505317147        7.02160127840606       -0.09242026584183
H            5.37540630981192        5.77012342836470        1.52460453629544
H            6.55428214179639        5.36518829271224        3.54187794887691
H            7.10210807161307        2.46349959467374        4.23966270013038
H            7.64540501256339        6.17945362802926        5.25229481161378
H            9.08851989302617        6.49470133717445        7.38780937390851
H            9.86787024196043        4.26571617858102        8.40483109412870
H            5.93158649909840        1.72222574574962        2.74950060210312
H            4.70026805236591        0.94600176935964        0.82538588342992
