121
 energy: -22.255236077507 gnorm: 0.000681968615 xtb: 6.6.1 (8d0f1dd)
C            2.37438217795279        0.79766081089452       -1.12053372289788
C            3.23300864051409       -0.09013964854701       -0.23883045137490
C            3.04907044705771        0.06377440568342        1.29933705653639
C            1.65352908764834       -0.42968333068180        1.78173309009242
C            1.29275943369030        0.04059123104138        3.18102404909840
C            4.10207900894457       -0.82510077145930        1.96121391300342
C            4.20413142964164       -2.20334462039836        1.93871770360141
C            5.22645190550423       -2.81599203549894        2.63619775062302
C            6.13101589956480       -2.05438058345771        3.35316012083461
C            6.03525540690993       -0.67780464681270        3.37024372570981
C            5.02301775654819       -0.04233184562018        2.65378835325019
C            4.66674012043925        1.38113789287751        2.47187654322432
C            3.43984704158660        1.48111001996994        1.78254584728926
C            2.89427267780140        2.75758475190517        1.53178600286955
C            3.65534824039017        3.90500019307790        1.82305871754839
C            4.89763338194393        3.80458158108295        2.46137618579502
C            5.38667978991811        2.53566343457938        2.80621367266887
C            6.76798392833103        2.68978348007878        3.45115925740064
C            7.86633951858495        1.98542518718555        2.60462748120047
C            7.85765058482625        2.41123795049506        1.14464582292120
C            6.70026868469088        2.23530590796147        4.94232076795316
C            8.03973451004877        1.99700820428621        5.61965481112624
C            7.00462682532659        4.19460865038257        3.40049002894264
C            8.11703159048724        4.90658957698165        3.78378954766026
C            8.13514403668515        6.28235867532226        3.61962482402668
B            9.40373764512211        7.06568138364922        4.03537188039116
C            9.30290989960669        8.59463370629943        4.34892845808848
C            8.41112935027092        9.04215658924407        5.32779293183004
C            7.54892651113526        8.09761051860855        6.09005478690046
C            8.32494569158122       10.39868917884584        5.58220139176881
C            9.10366917645327       11.31762394205344        4.89383713707278
C            9.01344843757718       12.77226267907907        5.19994214100816
C            9.99491417573676       10.84920819941485        3.93934806521678
C           10.10393990886794        9.50020899137411        3.65092248892504
C           11.05292700849394        9.03164495352270        2.60542159995035
C           10.76655243898544        6.30445932852880        4.15433104704017
C           11.27489455878537        5.62245577163776        3.04488623812159
C           10.56511022831144        5.61388494972375        1.73616184552697
C           12.46459903350828        4.92972474017006        3.17390856100826
C           13.16382819856119        4.90462845929589        4.37217741972608
C           14.43732248021719        4.14375523521408        4.50431494729690
C           12.63999905409547        5.58691225224416        5.46008779601719
C           11.45050516109017        6.28852839686352        5.37144444650894
C           10.90329703696897        6.98714193421271        6.56538711240896
C            7.03260796051567        6.92901983646915        3.07714476518495
C            5.91990663076288        6.21979894269200        2.68982705392647
C            5.89268308207365        4.83061077263681        2.83592663254720
C            2.94975559819552        5.14620616615744        1.26943516466621
C            3.77290853007504        5.77776284329742        0.11091812071667
C            4.08431939262022        4.79546719586437       -1.00760127608801
C            2.61919425753906        6.12180695642313        2.44433757576959
C            2.29616351991658        7.55307673453970        2.04752645596373
C            1.65167631935511        4.57924331489140        0.70810287555043
C            0.59683989029443        5.24183283251580        0.10970916403792
C           -0.54272839372406        4.53631094918392       -0.22279257547066
C           -0.63069794629932        3.18680226298301        0.06501728645469
C            0.42769381575815        2.52261319722968        0.65063317061821
C            1.60740273603175        3.20123773628146        0.93950485277685
H            2.58538766531954        0.64155828693298       -2.18141161718605
H            2.55215403551705        1.85325867719880       -0.91348513811919
H            1.31059769455704        0.60533702022846       -0.97684554625070
H            4.29181090258206        0.09230078522802       -0.46059582553100
H            3.06426405151645       -1.14226008628649       -0.49657000079760
H            1.65225828307501       -1.52591402778933        1.75197763099712
H            0.88393140751759       -0.16239543108727        1.05601042975956
H            2.04134811724787       -0.28188792492999        3.90747390252468
H            0.32502392835576       -0.34553758348888        3.50945067112182
H            1.24696644767268        1.12982773339396        3.23369478360434
H            3.49447782663763       -2.78752495089662        1.37901355178108
H            5.31496562341988       -3.89030499244318        2.62650980247432
H            6.91853775277319       -2.54146861768018        3.90539154380429
H            6.73656959624147       -0.11502781994548        3.95381662846583
H            7.75466422294651        0.90134423020474        2.66735190279571
H            8.84331043157373        2.20523789936486        3.04927183879015
H            6.91080661263507        2.15495616560451        0.66516223990559
H            8.65602255891388        1.93417877776798        0.57140450831072
H            7.98150622670868        3.49127513735350        1.04655722731920
H            6.07176266997040        1.34271675501713        5.01996111004714
H            6.13709538117629        2.99996568614515        5.49183950929878
H            8.61037624774970        1.21455514918382        5.11646940389774
H            7.91813407397291        1.68662517573095        6.66029403087569
H            8.65540274226083        2.89675956769874        5.62520863812984
H            8.98107511303667        4.40789881794751        4.17993826006308
H            7.86560981522648        7.06430240826987        5.94871689206369
H            6.50971409765931        8.17460038238071        5.76683162809394
H            7.58602327970256        8.31135374079815        7.15939484952988
H            7.63849114995683       10.74912939085733        6.33286597992502
H            8.01129966607921       13.04269731609583        5.53677646683797
H            9.23926762770546       13.37492195764952        4.31858254147724
H            9.71875973638461       13.04762214059421        5.98575092294362
H           10.61154540181355       11.55356349181950        3.40931198764527
H           11.57030932478370        9.86739687280817        2.13196732333611
H           10.52672655063337        8.48335592788643        1.82362244088091
H           11.81058006980199        8.37405538378765        3.03331664752984
H            9.70440865848407        6.28243411463101        1.74151252405187
H           10.20713014530070        4.61135628956495        1.49782079021559
H           11.22854697765371        5.93395292805978        0.93116869294458
H           12.85493318230968        4.39715223119406        2.32452262117352
H           14.79080410392032        3.78708883157712        3.53554028709224
H           14.30482516489892        3.27570969598911        5.15214908845083
H           15.22163769677469        4.76874312755143        4.93444376826694
H           13.17086233556187        5.56299493411055        6.39554126207205
H           11.57668102314691        6.90395738281160        7.41980383774773
H            9.94407523779335        6.55903510344968        6.85791577747841
H           10.75778848157316        8.04890397308953        6.36403019200294
H            7.06566937022003        7.99833108408248        2.95965381811378
H            5.08065586706075        6.74927422077976        2.28462465102748
H            4.70710440861909        6.18966255361331        0.49801770067478
H            3.21574862420584        6.63160278518214       -0.28991348473997
H            4.65767410413910        3.94378051737349       -0.63601523922985
H            4.66412440974784        5.25626334259446       -1.81076928743671
H            3.16951332020942        4.39711103601724       -1.45035879318668
H            3.44227363382840        6.10775791006743        3.16594459267790
H            1.77729359274659        5.69107348526323        3.00067627127939
H            3.13168349292952        8.02474115689181        1.52748173987814
H            2.07008599992272        8.17350784409915        2.91816611880016
H            1.43133829697610        7.60380013783645        1.38589159223576
H            0.66828434121307        6.29415621831892       -0.09941896892029
H           -1.37222073033572        5.04298452611595       -0.68896082705561
H           -1.53655216760034        2.64950059205281       -0.16549562769263
H            0.31383058203146        1.49685511182668        0.92623907513158
