125
 energy: -24.584586940420 gnorm: 0.000359472729 xtb: 6.6.1 (8d0f1dd)
C            0.77547867998506       -0.23179976080624       -0.09749576074635
C            2.28703760679728       -0.13180586810131        0.03458656090833
C            3.02262630472602       -0.13367091585938       -1.33519102630646
C            4.57111230103509       -0.09732990022149       -1.19397835363974
C            5.29782448562462       -0.19903487559309       -2.52569607424704
C            2.63698515000212       -1.39712932340688       -2.09571011988604
C            2.85851124965016       -2.71501419300307       -1.74782833957985
C            2.45990074306717       -3.71407762482279       -2.61346198208129
C            1.85668339780882       -3.39169779007470       -3.81576098703880
C            1.63625342827108       -2.07457282653606       -4.16491288644647
C            2.01649866477034       -1.05371339178045       -3.29701993390852
C            1.91522268011764        0.42264042230821       -3.37566778267148
C            2.51599885335780        0.99353951466084       -2.24007582842014
C            2.53755901838599        2.38695709219517       -2.07188033729448
C            1.93785027929935        3.20491181163452       -3.04486751963499
C            1.33328784423301        2.64652750518836       -4.17842174914234
C            1.32260193392833        1.25167260595800       -4.33585463990483
C            0.57570509493298        0.89639956294926       -5.62431632618230
C           -0.71009899398684        0.07800397945457       -5.31496506472251
C           -1.64022800926102        0.77498300057752       -4.33428299014653
C            1.56122995775279        0.21059471239285       -6.62089987096059
C            0.92075295939067       -0.51299920383198       -7.79372489136685
C            0.16795073486201        2.26045729131600       -6.17125702698007
C           -0.57841501726110        2.55371267344017       -7.28885245541700
C           -0.88959916428613        3.87665740931940       -7.59593297268748
N           -1.68549838157521        4.18491057957730       -8.74211953362193
C           -1.59510022305973        5.46924968584733       -9.37945426479749
C           -2.74171800495631        6.09973930124263       -9.85618455943427
C           -2.66371675497756        7.32890987460318      -10.47160017059568
C           -1.43908308910272        7.94969204308830      -10.62499254084485
C           -0.29151854142321        7.33383587502993      -10.16370468127758
C           -0.36701657104744        6.10396674514701       -9.54892385521608
C           -2.57636715380595        3.19847113166717       -9.28988156694655
C           -2.66444905061125        3.01639248824106      -10.66771524710288
C           -3.50077381312186        2.05967686801455      -11.19774675125515
C           -4.26657660625605        1.26971893448730      -10.36207463041997
C           -4.19635560633952        1.44377137566675       -8.99321721243516
C           -3.36190467812020        2.40089495680518       -8.46085116606088
C           -0.41839107641197        4.88370368249790       -6.75136855283682
C            0.32958597060940        4.59367571461399       -5.63398006015736
C            0.62469177948409        3.26824536992364       -5.31682682600033
C            2.05626850098522        4.67020753779126       -2.62072249451336
C            0.65435836406151        5.27203564046521       -2.31569930613165
C           -0.12674662527990        4.47658186654396       -1.28117102297834
C            2.88525391377985        5.45694201298578       -3.68461134787716
C            2.76372316225650        6.97142750501975       -3.63507387758867
C            2.84362955852224        4.58510618821464       -1.31877061368773
C            3.24790129564367        5.60652149335006       -0.49072819928789
C            3.94039574266194        5.32175144948494        0.68359943360575
N            4.38557846838514        6.37794981651686        1.53850372099316
C            3.68083209589667        7.62951160205166        1.56526956430233
C            4.37856615990312        8.83398422036093        1.60661008253292
C            3.70612371164354       10.03545257384846        1.61351661341599
C            2.32507361172572       10.05620613876531        1.58104796080448
C            1.61841771379697        8.86951958352072        1.54448374936057
C            2.28871218420614        7.66680755274837        1.53850594400068
C            5.57851258311130        6.22403050993929        2.32353330571324
C            5.65106058622298        6.75036766719682        3.61072459891158
C            6.79506623262381        6.60905029281867        4.36395980095641
C            7.88809383339262        5.94203812815164        3.84506699854386
C            7.83339897721524        5.41868781481051        2.56763133258784
C            6.69062118870468        5.55918911104196        1.81248892466342
C            4.19291727981722        3.98607470110850        0.99943675403755
C            3.78181370267478        2.96301290857627        0.17711319536394
C            3.09796065728314        3.24571965262315       -1.00491976288826
H            0.27646377450001       -0.23420083605396        0.87426205329168
H            0.48279895426446       -1.14476013233058       -0.61923350045769
H            0.37436417593854        0.60632128229287       -0.67072217221096
H            2.67010234069460       -0.96425247749995        0.63565854733760
H            2.53974577786497        0.77100878719565        0.59321725118733
H            4.87860287400095       -0.91526061235358       -0.53252346016704
H            4.87984731058010        0.81856917706027       -0.68813986716033
H            5.05121101018688       -1.12837100788740       -3.04227366897590
H            6.38319873327655       -0.16832570478238       -2.40582455254284
H            5.01684959100707        0.62030784330955       -3.19017843738272
H            3.34072045335173       -2.95009873423753       -0.81496467395336
H            2.62599918570781       -4.74710870562048       -2.35436188979700
H            1.55857072317776       -4.17863778468028       -4.48958490851633
H            1.19070668009445       -1.85550897585679       -5.11512049157522
H           -0.44396642138405       -0.90531948991545       -4.92299676093164
H           -1.23919476397519       -0.11150491279521       -6.25527476019078
H           -1.14358041024480        0.95202573662861       -3.37831377459617
H           -2.54052398351727        0.18964807839136       -4.13371823244474
H           -1.95890278562125        1.74762762543203       -4.71375930597889
H            2.21314153292408       -0.47289539430028       -6.06805292028943
H            2.24482645289478        0.98505763645131       -6.99014921913793
H            0.26214796845798       -1.31608268998814       -7.45887087977121
H            1.66984666991738       -0.96529979761056       -8.44808825590956
H            0.32591711056248        0.16168403687969       -8.40945021313924
H           -0.94045478341416        1.76566622323634       -7.92045730423070
H           -3.69234192711195        5.61173801208449       -9.72854813044748
H           -3.55940166944989        7.80732260099588      -10.83334924093795
H           -1.37887327994262        8.91259768244686      -11.10571322221526
H            0.66461017308192        7.81626172115121      -10.28630567704441
H            0.52489341527969        5.61263052308383       -9.20076081689696
H           -2.05821399447585        3.62996915275641      -11.31122324095809
H           -3.55595477376831        1.92541958600926      -12.26588615520273
H           -4.91915925118040        0.51933390329904      -10.77796264936240
H           -4.79584473771322        0.82962230211413       -8.34099641148051
H           -3.30982872137856        2.54836206540886       -7.39603897777858
H           -0.66756822815416        5.90529665846093       -6.97871247167462
H            0.68503059820390        5.39935769564571       -5.02274135179538
H            0.06792332147619        5.34131048152178       -3.23378812338277
H            0.78453303611201        6.30270446106880       -1.96792439773738
H           -0.29443055714906        3.45137430014385       -1.61689681666679
H           -1.10406965686605        4.91848075368671       -1.07397368162485
H            0.41432886425245        4.41867559542785       -0.33488434101189
H            2.62255123837160        5.09310120230470       -4.68306205573242
H            3.93541325233047        5.16309351488963       -3.56541879231348
H            1.73378482699885        7.29717894212119       -3.78981251193970
H            3.37011201327796        7.45131162357847       -4.40696606316765
H            3.09148718548642        7.37404184435389       -2.67682816638439
H            3.02860235250266        6.62688484154991       -0.73874776212579
H            5.45432316952164        8.81005602737520        1.62138354315066
H            4.25827206683853       10.96082569946676        1.64198145189042
H            1.79962065665729       10.99736419266137        1.58506813744492
H            0.54085229717304        8.88500279475615        1.52090193816795
H            1.74429304260277        6.73865996342628        1.51824761677780
H            4.79379267752459        7.26406583390715        4.00982254315294
H            6.83744582306711        7.01892480767641        5.36002789574345
H            8.78299832492512        5.83131701514874        4.43565673109952
H            8.68691003564133        4.90102006740531        2.16077022364329
H            6.64633807733433        5.16531858834427        0.81197555982189
H            4.71009910259513        3.76434480422859        1.91664956526574
H            3.99140179294046        1.95432906881553        0.46794187193886
