103
 energy: -19.808306556343 gnorm: 0.000451549515 xtb: 6.6.1 (8d0f1dd)
C            0.52727835962769        1.10343372052589        0.50498345553528
C            1.70130917364515        0.36234864410697       -0.11539851342194
C            2.88366321249989        1.29792068791689       -0.49512070623921
C            4.05616044261480        0.54739949990672       -1.18843843374635
C            5.16758348515504        1.47374301618763       -1.65641934190463
C            2.36814641795258        2.37212431278239       -1.44584243492216
C            1.82065940015976        2.21925674811337       -2.70439551479208
C            1.44785332052769        3.34254815082704       -3.41524280387324
C            1.62980380670504        4.60099356097450       -2.87081209231131
C            2.17653499618584        4.75430783154670       -1.61255489035287
C            2.54672036274631        3.63225362067891       -0.87545126333559
C            3.14750146243397        3.46519817591137        0.46932215036305
C            3.37177610445926        2.09918959707230        0.71569172866482
C            3.91933828356349        1.67771219728553        1.93684525950531
C            4.23632269121484        2.63605723565894        2.91318003780586
C            4.02553985764597        4.00069609130363        2.67542456793722
C            3.46653135479426        4.40733846261761        1.45405359122807
C            3.25798440587817        5.92406057370912        1.47592181098946
C            1.74662750487469        6.27850749163305        1.38493058687310
C            0.90993992962460        5.61000670324120        2.46466789081644
C            4.14967145196086        6.58622062744485        0.37938679868304
C            3.79772980435319        8.01957783212195        0.01727476213603
C            3.77515249529845        6.32115284508466        2.85469860825308
C            3.79700554895317        7.56381934934116        3.44411624783344
C            4.31069187811685        7.71825098096180        4.73008195232343
N            4.31397078404765        9.00195972360940        5.35886074920415
C            5.31189428069493        9.33597506382422        6.33631416301767
C            4.97392905870018       10.07608837528039        7.46662754754296
C            5.92827547548709       10.40312768855350        8.40368726314508
C            7.23788181893100        9.99958483408433        8.22802212056191
C            7.58972990552336        9.26847728827846        7.10962681160554
C            6.63692585974980        8.94000306985586        6.17133252738666
C            3.32254334778129        9.97976396321476        5.00507945573010
C            3.66912407289848       11.32189867283858        4.87086442116798
C            2.72410426037501       12.25977146417089        4.52012376017725
C            1.41552624582316       11.87531111856018        4.29919939859246
C            1.05483029691345       10.54832858290658        4.43354294140996
C            1.99797215855817        9.60884249276916        4.78487066093932
C            4.80952567164545        6.59262373641285        5.38859026414545
C            4.78226457287241        5.34783950075321        4.80410557950720
C            4.24237592035522        5.18859874324667        3.52831107257185
C            4.74120461743967        1.93014643293450        4.17357034715080
C            3.77761514147077        2.17800900310338        5.36916324048219
C            2.33689608576804        1.79714688480799        5.06547951613167
C            6.22425857485912        2.34117559582416        4.43681100019443
C            6.75529364663993        2.04880511794841        5.83039151480815
C            4.68293219756310        0.45541603379619        3.78898924198545
C            4.99269856304549       -0.65321291606551        4.55303617018793
C            4.86417186753707       -1.91149765092330        4.00057134385163
C            4.42429941083710       -2.05504668765969        2.69815512837789
C            4.09853283430229       -0.95034379139986        1.93791808134584
C            4.21702726857705        0.32800569829973        2.47759689038594
H           -0.29780505132577        0.43221984009014        0.75433141871932
H            0.13736289740562        1.86560478870693       -0.17216479121436
H            0.82462511925141        1.61403312274047        1.42307555405367
H            1.37820634347769       -0.17161479103958       -1.01627587206582
H            2.04277697249046       -0.41158076411155        0.57403347331465
H            3.65354682193411       -0.01829945459806       -2.03636904090751
H            4.47504649180216       -0.19891607143179       -0.51180413171895
H            4.79646485779847        2.20785156123187       -2.37392044851219
H            5.98323612130105        0.92862807896139       -2.13703069172091
H            5.59259498853470        2.03148784030895       -0.81962821029670
H            1.69442716798335        1.23413573075171       -3.11877565793764
H            1.02036495637435        3.23780599165946       -4.39923528626132
H            1.34365566681826        5.47226985645881       -3.43758360463173
H            2.32406541660587        5.74336570070482       -1.22593906099731
H            1.35603612941710        6.00338397111007        0.40326163279985
H            1.63737922207662        7.36641073911497        1.45309870727464
H            0.97827728953352        4.52237628255656        2.39908462505190
H           -0.14662355172979        5.87801572021013        2.39175189040717
H            1.25208170859514        5.89223853079573        3.46214141769014
H            4.14260172332124        5.95861418277556       -0.51730558699580
H            5.18876642851620        6.53489737388586        0.72757638257539
H            2.78291475839480        8.09661229010237       -0.37671177817289
H            4.46868561889317        8.42103716445724       -0.74600767686623
H            3.86343894341584        8.68217832110386        0.88035028290452
H            3.40831428991786        8.41854534342616        2.92463566326538
H            3.95068310791323       10.38187111072029        7.59923600786419
H            5.65295326306653       10.97408677571159        9.27560828448600
H            7.98440958516388       10.25585819989147        8.96219129246735
H            8.61197112559895        8.95587370896161        6.97066477609000
H            6.90662424413085        8.38103360307709        5.29212336617277
H            4.69205132964124       11.61230631280893        5.03636587750532
H            3.00622895215605       13.29493980729106        4.41589072414786
H            0.67671309278408       12.61020037653960        4.02343872707933
H            0.03351878051692       10.24816066991892        4.26367341856986
H            1.72150937384945        8.57510504432936        4.89996186941310
H            5.20439889871094        6.71140656968060        6.38240980891400
H            5.18942983446122        4.51286664303980        5.33921768368395
H            3.81736683808041        3.22620663629469        5.67153125178227
H            4.13762620386012        1.60790532250796        6.23256883088953
H            1.94473254009931        2.37609472445971        4.22709059983002
H            1.67750378213956        1.96771037060519        5.91961942495782
H            2.25505607779084        0.74350090949543        4.79226508314763
H            6.34897239724699        3.40308587175611        4.20205597951668
H            6.84357824829416        1.83214940791982        3.68787716572677
H            6.18176975495919        2.57284074140131        6.59685337021556
H            7.79666433443045        2.36071940596530        5.94109939722010
H            6.71414004722448        0.98466557500757        6.06322082656445
H            5.31234450481575       -0.53498066906511        5.57282897170262
H            5.10683666297359       -2.78320311373794        4.58649701128104
H            4.32968633650711       -3.04168954811538        2.27394639799723
H            3.75635966341823       -1.09865180253420        0.93435997741130
