61
 energy: -12.809801935416 gnorm: 0.000654303283 xtb: 6.6.1 (8d0f1dd)
C            0.71511047163944        0.01309549501613       -0.54706528423820
C            1.95348468843772       -0.08825985552240        0.32705393905033
C            2.98605723885699       -1.16989115426230       -0.09217435769739
C            3.54465899129842       -0.90825476495315       -1.51415912557221
C            4.63199083069844       -1.88778428066623       -1.92464986610961
C            2.40706159693698       -2.58600150241732        0.02117648307447
C            1.41933386322443       -3.21560250903644       -0.71093025907302
C            1.09220597549142       -4.52649436230015       -0.41425396779980
C            1.75037387095573       -5.20996956577888        0.59528621758684
C            2.75505005491606       -4.59918199575583        1.31744513551831
C            3.08590716062356       -3.28330051175927        1.02472701698870
C            4.13837896543173       -2.42797899326702        1.58713054883921
C            5.08543326233664       -2.69226215961783        2.56658343602667
C            5.99632527725479       -1.71074597783459        2.89510011912694
C            5.98423461488327       -0.46564933878592        2.26107178255831
C            6.91351770198683        0.53026390368157        2.61935734298236
C            7.69730274549176        1.41081814119974        2.94380896249549
C            8.55898629113944        2.45161834032937        3.33051978749840
C            9.82172042166341        2.15116268705654        3.83633903124863
C           10.69110384213944        3.13737395580747        4.24133214874865
C           10.33292318215087        4.48469508072468        4.16027616923450
C           11.20970775615055        5.53317786481778        4.58002326036255
C           10.84125389188912        6.83107677207286        4.49693337330485
C            9.55939068116723        7.20547421795358        3.98439164723912
C            9.15394970570270        8.53787364510952        3.88990939391783
C            7.90952043334693        8.86323265132578        3.39102035719558
C            7.03736040131611        7.87880418890540        2.97432544880874
C            7.39364035433338        6.53114406312857        3.04856314541084
C            6.51595067496110        5.48303377655312        2.62899008606787
C            6.88389615034080        4.18552021655134        2.71575867911699
C            8.16368309773950        3.80271508519002        3.22782807300747
C            9.05703266939588        4.81970691888949        3.64773001087383
C            8.66923470434354        6.18902513507370        3.55908022733531
C            5.03248551155528       -0.21384002206695        1.27381512861689
C            4.11842616801900       -1.19087511273842        0.94104912395232
H            0.04679775304800        0.80959130280870       -0.21145060014750
H            0.13875285868304       -0.91233949176644       -0.53239790213318
H            0.97020324207794        0.22615732145805       -1.58609679509041
H            1.66098953663554       -0.28914557042137        1.36448870548952
H            2.46845981704441        0.87906642701010        0.35563126003413
H            3.92523948438890        0.11860335183399       -1.55629115406270
H            2.71799407055364       -0.94831808303356       -2.23138237012941
H            5.48573781878006       -1.83727919274415       -1.24655219676388
H            5.00224990286434       -1.69289126727380       -2.93356059814217
H            4.26546324591199       -2.91559848263517       -1.90156920430839
H            0.93106178742956       -2.69645541257789       -1.51668746476643
H            0.31940960273206       -5.02272191815024       -0.97838720848037
H            1.48214994219746       -6.23101669151040        0.81261407485946
H            3.28484957752984       -5.12607516502741        2.09151628171527
H            5.10050111709653       -3.65124298726628        3.05386907170579
H            6.73637832374399       -1.89580232713281        3.65489542437150
H           10.11198505745326        1.11680220963814        3.91009927816238
H           11.66047898298216        2.87731678508159        4.63033474177091
H           12.17771136478458        5.26832526298172        4.96906909517487
H           11.51324761099988        7.60765947500336        4.81911068055425
H            9.82709532234214        9.31311638487894        4.21333370273535
H            7.61526791953105        9.89814945424885        3.32664234677983
H            6.06835967418703        8.14267527035767        2.58687190882876
H            5.54774089707315        5.74767837130066        2.24038183068689
H            6.20883808518178        3.41118111916529        2.39569428562815
H            5.01327375689707        0.73860382113322        0.77584958988159
