43
 energy: -9.339609666062 gnorm: 0.000861627862 xtb: 6.6.1 (8d0f1dd)
C            0.97910923620938       -0.10793837452310       -0.01631241280188
C            0.22782580538963        1.01127375787668       -0.05190571319404
C           -1.22628877083466        1.05754930642828       -0.01125974412011
C           -1.97487979797977        0.21017833153172        0.85631953054488
C           -1.35987569230526       -0.63374576580107        1.81555125450777
C           -2.09422727136730       -1.43802578072356        2.63111613452704
C           -3.49437072640945       -1.44617909409507        2.55105371459581
C           -4.13291860787497       -0.63039694620945        1.67322977140270
C           -3.40111579793579        0.23363957570785        0.81556873694228
C           -4.05463064794297        1.11718070132999       -0.03925320508697
C           -3.34760282068011        1.99172477064816       -0.85975716181433
C           -4.02191425648760        2.90392381113969       -1.71419398318310
C           -3.32680523867923        3.74134813692248       -2.52636225188149
C           -1.92439229009672        3.71204004785891       -2.53804940974370
C           -1.24323510778257        2.85284954512252       -1.73210311536581
C           -1.92168563001058        1.97035655116149       -0.85412756371103
C            2.41566127930009       -0.06691212960370       -0.03478191076075
C            3.13071397335365       -1.28447691992241       -0.04161564397139
C            4.48193328399259       -1.28067697738936       -0.04786882529250
C            5.15339855920634       -0.04360848067563       -0.04409901528303
C            6.55979444906533        0.05244795865955       -0.04362181471852
C            7.17179918995840        1.27103627056630       -0.03239417009696
C            6.40745028206849        2.44038783060917       -0.02219649928056
C            5.04497674818491        2.37471382835743       -0.02462344241679
C            4.37383253282210        1.13512308886101       -0.03623843948279
N            3.01308793634693        1.11707770153224       -0.03560763468003
H            0.49735314941842       -1.06923868173894       -0.00829046651914
H            0.75809989405139        1.94268195244486       -0.15162365361074
H           -0.29122496016042       -0.60793340288379        1.92779133181007
H           -1.59944531772977       -2.06929893902992        3.35111678622357
H           -4.06196719501781       -2.09399572205572        3.19896015333129
H           -5.20819543384619       -0.62324399402351        1.62233942457095
H           -5.12941683976955        1.13523811782103       -0.05472589536139
H           -5.09825207430532        2.92114590602400       -1.70893101203065
H           -3.85089636787725        4.42911524178632       -3.16971074493207
H           -1.38503119379105        4.37373015038951       -3.19602534574523
H           -0.16898903881270        2.83220433020798       -1.77204576415740
H            2.58624650630403       -2.21318388350696       -0.04144310736159
H            5.04502415830719       -2.19803243676997       -0.05313338581993
H            7.14421525544189       -0.85146976407867       -0.05059937565989
H            8.24761151740144        1.33483237868971       -0.03040857186947
H            6.90000386989603        3.39893801205176       -0.01164316734143
H            4.45233345098180        3.27270998930115       -0.01644439116107
