75
 energy: -14.180075003642 gnorm: 0.000244358312 xtb: 6.6.1 (8d0f1dd)
C            0.73925338272670       -0.86744989337122       -1.86857313295273
C            2.13571765520325       -1.37614998495937       -1.54344584302619
C            2.50174496541101       -1.42344879296289       -0.04549194157997
C            1.62048542555892       -2.42971074963983        0.67383134434443
C            0.46591786533277       -2.01053428562746        1.24932048582238
C            0.10335845748019       -0.62210536788685        1.28075710743943
C            0.97693253201101        0.35065580260205        0.91741115474988
C            0.63903397285845        1.73393226539699        0.60507153987097
C           -0.57904626938796        2.38208796235567        0.81447788325147
C           -0.76023883492691        3.67241554619799        0.37684257515177
C            0.26067709897120        4.36565716363234       -0.28310293418635
C            0.06938139488583        5.70751991006591       -0.81226205256576
C           -1.05340439583399        6.47771974798550       -0.73149439634300
C           -0.93701119163100        7.73583934992681       -1.37886286893046
C            0.26975132072033        7.95008212467603       -1.95858010633157
C            0.66501688959995        9.15532958479364       -2.70818373580727
S            1.29722689769518        6.57696552269522       -1.69300379817778
C            1.48043577665632        3.71375596653275       -0.47290412643073
C            1.64374065007626        2.42858422957101       -0.03982720726352
S            3.10747698580877        1.42160412911092       -0.25270945178998
O            3.18387081695472        1.15806221049425       -1.73340775165172
O            4.19739527495175        2.07329414610225        0.56211976520865
C            2.43050963414257       -0.02464497422905        0.69711662429077
C            3.17215944469672       -0.07223188376937        2.05378131889723
C            2.90044105728596        1.09995816096793        2.98400591671451
C           -1.34358702902285       -0.47059666426129        1.67912484564263
F           -2.06606873986956       -0.11354535050105        0.60507367230392
F           -1.46000953489669        0.43097545058282        2.66671324563217
C           -1.79772364577853       -1.87204476720224        2.19177957464899
F           -2.95528401865675       -2.21867997883597        1.61904223935175
F           -1.90044424949435       -1.85093625521518        3.52600920305120
C           -0.66734256563928       -2.86161472008258        1.77059988415259
F           -1.11474444375620       -3.66041824854330        0.78832394377326
F           -0.25875501504501       -3.57877220502495        2.82902480511396
C            2.11857569234094       -3.79890901070620        0.63072292492826
C            1.41516158440629       -4.97391525578302        0.89791325767247
C            2.02745281801367       -6.19409858618949        0.73845682375816
C            3.35646727384607       -6.28949445680749        0.30934790028628
C            4.00220011834589       -7.57170216849082        0.07269368635718
C            3.47407772304211       -8.81491122787869        0.26242571351834
C            4.35167511754075       -9.87389182346216       -0.09043839377934
C            5.55928667134409       -9.46235260361015       -0.54970366342364
C            6.65562275472337      -10.33815893602875       -0.99880798975890
S            5.62678368214675       -7.72836039490782       -0.53797812187510
C            4.05872933201901       -5.10582082501469        0.07256003784091
C            3.43882716873047       -3.89944903782858        0.23603395453116
S            4.15304014766303       -2.27405240516716       -0.01784746649941
O            4.92365266558579       -1.94356557129790        1.23398754773725
O            4.74468315211682       -2.28493577514076       -1.40569379716702
H            0.52766708132885       -0.92049242902709       -2.93791808090876
H            0.61822334972512        0.17399666553161       -1.57093191546094
H           -0.02699930306033       -1.44776245805971       -1.35214373049930
H            2.89374023329209       -0.77561526403083       -2.06472516673649
H            2.25725689731112       -2.38895424110907       -1.94826859068416
H           -1.37831949417736        1.85900075153494        1.30705996658779
H           -1.70957659634560        4.15319946937350        0.53121572649723
H           -1.95628125476781        6.16013428097634       -0.23443556207661
H           -1.73874829465714        8.45761846188717       -1.41694147585929
H            0.06211325947004        9.26683430353845       -3.60991095970845
H            1.71152587003159        9.09692568347770       -3.00875405596708
H            0.53830869869392       10.05173909277523       -2.10060986386117
H            2.28502080166972        4.20885230553714       -0.98664013525512
H            4.24915393610073       -0.13974886361637        1.84924943647948
H            2.90891742617691       -1.01005603281837        2.55779779301956
H            3.20731096241573        2.04105361096958        2.52474078593197
H            3.44308846851252        1.00444641977030        3.92616836141218
H            1.83873526969215        1.17882822272874        3.22243559837940
H            0.38838499120158       -4.91492443938390        1.21111462631190
H            1.47032506112921       -7.09299340974216        0.93296654831869
H            2.47694472155360       -8.98518197305707        0.63647098431552
H            4.08276466635115      -10.91619674834427       -0.00961401631066
H            6.36122176029368      -10.90751456575706       -1.88097226955957
H            6.93685179303263      -11.04346885964338       -0.21635796664404
H            7.53764458209715       -9.75116804097709       -1.25647514321961
H            5.08278164588992       -5.13862901570986       -0.25394109101083
