83
 energy: -15.867971819473 gnorm: 0.000428668783 xtb: 6.6.1 (8d0f1dd)
C           -0.26774522763108       -0.35174394888681        1.90548007292615
C            0.89579124683339       -0.38794953899637        0.92791522691776
C            2.16214257250693        0.38139456386002        1.37472648841205
C            1.79551943466332        1.75637903632069        1.90897428263131
C            1.61763497714206        2.77068324536437        1.02748044466127
C            1.86059213229887        2.58265579414136       -0.37710989304481
C            2.50350276496416        1.47965783545726       -0.84212297770655
C            2.42285263496179        0.95666653773971       -2.20102756181543
C            1.84741630081590        1.57349334066143       -3.31246068776400
C            1.68196954645239        0.86921056690338       -4.48223932193466
C            2.08677089628186       -0.46495541722504       -4.58941299632227
C            1.76411657218979       -1.27131415474473       -5.78503424680528
C            1.84138771087586       -0.73928247974603       -7.06890661962764
C            1.48771830277999       -1.49295824376468       -8.16548229775679
C            1.04875864164719       -2.79859796460219       -8.01430877088667
C            0.62611124045120       -3.62303752772113       -9.19043556560367
O            1.02148828665176       -4.97377664369913       -9.09623513129165
C            0.96740991693564       -3.33185750804953       -6.74206349820643
C            1.32123789999148       -2.58416349244198       -5.64336614833355
C            2.70761220897325       -1.05698643514058       -3.48864550870600
C            2.84849140996514       -0.35122931943468       -2.32720818233224
S            3.52518950115232       -0.98099645992640       -0.79600393582041
O            2.62184569807191       -2.12224973025026       -0.41136163273843
O            5.01489852152414       -1.10160971353193       -0.99899483693567
C            3.17207555416131        0.56545915506915        0.16997483986919
C            4.52064604215288        1.15904086344596        0.63851981097069
C            5.40789255349215        1.69495759999075       -0.47476598529741
C            1.21948568071273        3.69956454246755       -1.16287818507096
F            0.08453490673957        3.25781848175413       -1.72815188004297
F            2.07284303402539        4.16704001590251       -2.08730731752461
C            0.89937546760343        4.81485921178332       -0.11977480978287
F           -0.32999828727949        5.29942828179033       -0.32266886938016
F            1.82521399708527        5.77809471885727       -0.19835707999202
C            0.98783539654370        4.12014286133473        1.27551752848680
F           -0.24681034026040        3.95274318129675        1.77625421423027
F            1.75291402873751        4.84266911490627        2.10827033797459
C            1.60183675904989        1.80929893520725        3.35216462098224
C            0.97642248973919        2.81181114523556        4.09319260675208
C            0.75411818864329        2.63213424917295        5.43832649883711
C            1.15098061624767        1.46002727025498        6.08978993532397
C            0.78458714409077        1.20140772328179        7.49780427812682
C           -0.47698078888807        1.54614909088459        7.97630583299234
C           -0.85800762962106        1.22560352399216        9.25882704572594
C            0.00842059411794        0.55091920760308       10.10271351596929
C           -0.40061862061570        0.16097134650837       11.48907969589584
O           -0.15700518010679       -1.19829744844011       11.77570667240793
C            1.26821343263500        0.21826688949509        9.64008693451194
C            1.65385788408017        0.53547215197033        8.35756694519494
C            1.82662638028093        0.48789441377475        5.35057669456490
C            2.03261588686204        0.67477268034837        4.01263018451787
S            2.82189115334731       -0.47371408965589        2.88317548654647
O            4.30819851354964       -0.26165009358527        2.98806908603722
O            2.09259439807107       -1.77580183746758        3.10244486308734
H           -1.13149144571693       -0.90231833378231        1.52889794006795
H           -0.59004224089645        0.67236421451656        2.09915572073638
H            0.01183581594706       -0.79880020195397        2.86070976201811
H            0.57121221747210        0.01135311753017       -0.03998939142791
H            1.18261203847001       -1.43122974092351        0.74337141081802
H            1.50227585038522        2.58893435894090       -3.23334233064512
H            1.18842390940978        1.33375292750504       -5.31797005015721
H            2.18537626221936        0.27202906662666       -7.19802412305223
H            1.54445768038597       -1.06831616236605       -9.15290611289972
H            1.01943134887576       -3.20744863701709      -10.12567184807205
H           -0.46666743432639       -3.61860544360838       -9.27443885968020
H            1.99465875674523       -5.03717055522042       -8.98043178432285
H            0.61726688341713       -4.34333886235283       -6.62436139702494
H            1.23148841267834       -3.00470125163287       -4.65677613419745
H            3.03947930515823       -2.07931728259656       -3.53010641216049
H            5.05578160090677        0.38482396123378        1.20416214049604
H            4.31499671969501        1.95990589731174        1.35866392966773
H            5.67284308951697        0.90363795808739       -1.17787524006233
H            6.33874228818941        2.11272987272563       -0.08710661862019
H            4.90368380065944        2.48139062608132       -1.03845214812272
H            0.64893310987481        3.70885051826725        3.59876685643079
H            0.25447078649052        3.39974266211929        6.00324610334102
H           -1.16989286376837        2.04075950620593        7.31812008271650
H           -1.84163708900616        1.48567724839973        9.61029596417075
H           -1.46362795008815        0.36849508796095       11.66060475727027
H            0.16052667582963        0.74740691453798       12.22519759018313
H           -0.58975831392390       -1.77108915501628       11.10544731618519
H            1.93832574018200       -0.31135904115415       10.29570489972717
H            2.63514343717736        0.26571004326810        8.00771635758750
H            2.13868916239115       -0.43287484307105        5.81043141523694
