75
 energy: -14.680760741447 gnorm: 0.000219904461 xtb: 6.6.1 (8d0f1dd)
C            0.43886182614570       -0.54889635085277       -2.28088698025634
C            1.51348787875460        0.49734707602183       -2.55649999890027
C            2.47359579215329        0.76236880020287       -1.37780278581310
C            3.58399324312483        1.73463179761895       -1.77763185799634
C            3.92380694143886        2.79511877822154       -0.96683724744930
C            3.57646657738759        2.78981850076999        0.43688032067828
C            2.69259566263501        1.87143460093631        0.90957949257296
C            2.61721276201828        1.33835721288152        2.26312165065630
C            3.41103605818673        1.70265665606322        3.34921452877803
C            3.31391690437548        1.00919495977551        4.53181830062156
C            2.43281742842766       -0.06711619334104        4.67118489778018
C            2.39758083096537       -0.86366524483783        5.91505106572760
C            2.47836310334018       -0.25388573748414        7.16444608484418
C            2.46870088566197       -1.00708369494034        8.31648473414363
C            2.37976527868515       -2.38127432691308        8.24523207965872
C            2.29961731430529       -3.00240594481497        7.01704876696850
C            2.30842458418775       -2.25299173534565        5.86301694385173
C            1.62804152276479       -0.41136173129465        3.58382400900429
C            1.73627020419136        0.28409204914896        2.41213534004940
S            0.83509411086064       -0.02450426652935        0.90281929450608
O            1.01457531509460       -1.41857139318263        0.36660024655777
O           -0.58079803865126        0.47135195221392        1.09581334652359
C            1.71802227734368        1.27883964504969       -0.08209261147700
C            0.69290680424684        2.38188850860917       -0.46230616016712
C            0.15918509381467        3.19612170397932        0.70887390277696
C            4.46690599889437        3.74203070517046        1.19977688229942
F            5.43223469205188        3.06884908505900        1.84423027421993
F            3.73478497097085        4.47800818212618        2.05019429849908
C            5.10446374548890        4.64377686543995        0.10150065616408
F            6.36173295371936        4.96313655755175        0.42128521269879
F            4.34304051622382        5.72918567927503       -0.08111160154743
C            5.06789575164185        3.76241096363650       -1.18333457900554
F            6.22726018227901        3.09419635395072       -1.29157984160369
F            4.83833984907159        4.51655223928329       -2.27027661098194
C            4.58881476977244        1.11099783326315       -2.65793217612638
C            5.47540060965454        1.74149161887409       -3.52893652263768
C            6.42993294754733        0.99521558867615       -4.17923150905491
C            6.53466591723374       -0.38567932603307       -3.97871086154143
C            7.59799587216770       -1.17497825715377       -4.63404368415838
C            8.89498196485621       -0.67773198337890       -4.73791181888670
C            9.89235972255851       -1.42811472707040       -5.31778406619437
C            9.61621361403891       -2.68810684280358       -5.80480404869589
C            8.33829045081466       -3.19706831092716       -5.71037367448087
C            7.33831589769870       -2.45023683721066       -5.13040159585926
C            5.64452291545941       -1.00111932024960       -3.09664461506551
C            4.70665239428260       -0.24823904478602       -2.44782975012492
S            3.49522321206139       -0.78562081176960       -1.22379978864046
O            2.88108731975818       -1.96376952648610       -1.94101276165081
O            4.11497372869926       -0.79924438066999        0.14890136269791
H            0.88703282772399       -1.48675090369290       -1.94189959506003
H           -0.16011557022589       -0.76690895925916       -3.16627511664018
H           -0.24388499236233       -0.23477771024194       -1.49099661632946
H            1.05553366158959        1.44226064401838       -2.86851459175175
H            2.11647131039040        0.17958462158535       -3.41581675565601
H            4.12447805061096        2.49924009131630        3.23711861123634
H            3.95658172751449        1.26773371935979        5.35529695507652
H            2.53971283265165        0.81889261058010        7.22168447197223
H            2.53224321030974       -0.52180738349158        9.27652605303005
H            2.37557813212563       -2.96933677800174        9.14789889685432
H            2.23558959419056       -4.07666676264872        6.95987152323243
H            2.26809559822532       -2.73982695749599        4.90390012263834
H            0.93597617049081       -1.23178051595747        3.65246013614041
H           -0.14332871372816        1.92073480179301       -0.99723989925084
H            1.17200587292482        3.06022684706565       -1.17814746800415
H           -0.55321934786389        3.95684107440807        0.38528938547987
H            0.96507824865511        3.70752950786744        1.23777805101132
H           -0.35140138429709        2.55492071176608        1.42883246547083
H            5.44500902810659        2.81426902385916       -3.61875040172238
H            7.12317337651391        1.47986874655881       -4.84426709528605
H            9.11707189437660        0.29527649600093       -4.33524749497111
H           10.89271905515406       -1.03292246166811       -5.38430503394607
H           10.39899082737964       -3.27589661480398       -6.25470066686520
H            8.12265893588575       -4.18294821713245       -6.08829884459492
H            6.34030600869215       -2.84679294162761       -5.06047706835565
H            5.71315328664917       -2.05470061598773       -2.89245656767875
