55
 energy: -10.318648747621 gnorm: 0.000815424198 xtb: 6.6.1 (8d0f1dd)
C            3.55990639884720       -1.15302953107290        0.55044678546378
C            3.29184443743810        0.33471763499649        0.33755827177115
C            2.23997579426217        0.74729126468632       -0.74518489630694
C            2.71895336548997        2.05678123134603       -1.36685044162827
C            2.43310433196116        3.22554387200563       -0.74510206683645
C            1.58705800333530        3.27511841682115        0.41460676714250
C            0.86241301487154        2.19989280175731        0.80292021125517
C            0.09030445452748        2.08179973001117        2.03752024874960
C           -0.15870490160521        3.07782623967163        2.98063614038736
C           -0.91923797826790        2.79608676980495        4.09332061526006
C           -1.43535842587809        1.52875395828263        4.28752270123041
C           -1.18287152483189        0.53124881115246        3.36696095480517
C           -0.42362815438168        0.82171278891508        2.26395723072992
S            0.05356689551362       -0.30799844024153        0.95811188157759
O            1.06731018886057       -1.21688168760264        1.59181207050377
O           -1.22543858421477       -0.78489946203794        0.31753028592692
C            0.79013205783022        1.00487762377741       -0.13145832506859
C           -0.24774633147747        1.28041915847908       -1.24956994526152
C           -1.55748546735674        1.90402178157728       -0.79102503057447
C            1.56346858264490        4.66847039789395        0.99231177081055
F            2.18272220683404        4.67920905137383        2.18205338762481
F            0.29470679233103        5.08797794081494        1.10482395947494
C            2.32366260931962        5.57382226584572       -0.02287856826401
F            3.29766485563444        6.24478435064037        0.60014358988820
F            1.46209200592199        6.40858531523786       -0.61361439807064
C            2.92943650537269        4.60907069697592       -1.08782633387064
F            4.26836921821643        4.64061319742033       -1.01293541957858
F            2.50736473724814        4.95289198968569       -2.31361935538625
C            3.45653135407795        1.92351966191234       -2.62214595143774
C            4.22700789800550        2.89218846222388       -3.26438232086077
C            4.85102485090914        2.59608636132518       -4.45556880281680
C            4.72359209622413        1.34144534684653       -5.02139989291110
C            3.96386102718770        0.37450180566477       -4.39344302431661
C            3.34415190063779        0.68208594747034       -3.21061195675655
S            2.29786761310054       -0.38494228993649       -2.22702063977426
O            0.96160163671618       -0.39834286629409       -2.92138804399204
O            3.10107744253707       -1.63782085007749       -2.00297938523223
H            4.15345057740848       -1.33921071870154        1.44703721482242
H            4.09732077392257       -1.58668911868182       -0.29432405869730
H            2.63066425743174       -1.71500963062985        0.64706209480615
H            4.24082109073571        0.82605853065968        0.08943177032895
H            2.98650746559524        0.79126285893324        1.28643348611021
H            0.25108292307181        4.06154920201762        2.83723675186082
H           -1.11199764882135        3.57045472004678        4.81769068990882
H           -2.02973495051302        1.31623162656551        5.16083081930145
H           -1.56392351192580       -0.46737827487826        3.50222252863509
H           -0.45488251496325        0.32946525841654       -1.75910236772431
H            0.21799004531588        1.92471025856657       -2.00469921323864
H           -2.23712532054615        2.07843501565124       -1.62701451763536
H           -1.39003381368473        2.86329863948967       -0.29884971641605
H           -2.07281439622925        1.25202749993236       -0.08386350648323
H            4.33170323637536        3.86699072949332       -2.82286673790749
H            5.44236966905782        3.34969033383016       -4.94989007128611
H            5.21386631507245        1.11774776287302       -5.95462181803962
H            3.84401489485723       -0.60929444093547       -4.81619542200122
