47
 energy: -8.771018257494 gnorm: 0.000983976169 xtb: 6.6.1 (8d0f1dd)
C            4.72807337197805       -2.32472386367340        0.65936069693457
C            5.23258897106448       -0.93885465132507        0.29273769810946
C            5.13645973893811       -0.66446296882278       -1.17170933708699
C            4.10110516132826       -0.06884698021508       -1.81275604350895
C            2.86706851550502        0.48234395027558       -1.21760542005691
C            4.37419305949412       -0.05322107823490       -3.24690866324309
O            3.62803139502366        0.41239420595809       -4.08560609175612
N            5.62283570281568       -0.67502631941006       -3.42155726314670
C            6.10755796508400       -1.06434769271164       -2.16270873235412
C            7.30484284182324       -1.70729650906454       -2.00434566585407
C            8.05925530011222       -1.97078191007158       -3.16721831478882
N            9.27869169410098       -2.58039408051157       -3.33966309140159
C            9.58903735981232       -2.58742482466165       -4.67846563956825
C           10.83323939380808       -3.15565611040544       -5.21889760242208
O           11.63887028916559       -3.64070594784157       -4.44701524445751
O           10.98378560049106       -3.08893825740690       -6.58001754245356
C           12.22801386311527       -3.65335337439239       -7.06364876241493
C           13.41224522718729       -2.88747668962599       -6.46265920219200
C           12.29859750441002       -5.14103381120820       -6.70052296893016
C           12.23853120495279       -3.49737441613099       -8.59001563127145
C            8.55624671641103       -1.97837441440762       -5.38522169103514
C            8.47790483261058       -1.74643522832138       -6.84254106106075
C            7.59806406339942       -1.58944010597315       -4.43828011338629
C            6.32501716160401       -0.91025000628192       -4.61990042288824
O            5.93147945980656       -0.58918215551900       -5.72676254333919
H            3.68324583024091       -2.45026353272178        0.37204894215483
H            4.80317728250044       -2.51957673159513        1.73076091402896
H            5.29666545739150       -3.09846520789416        0.14151167736135
H            6.27481906362619       -0.81410076286924        0.61011214626128
H            4.67198014955473       -0.17087017949332        0.83885666800389
H            2.31360232732543       -0.28682228400610       -0.67847320646742
H            2.21798347402997        0.87944599665684       -1.99963444403154
H            3.09488624671880        1.29330850111520       -0.52542921575621
H            7.66467807256601       -2.00123567104438       -1.03729828921110
H            9.87911009721443       -2.96597962097316       -2.61045126922451
H           13.40848850225679       -2.98024168427701       -5.37802439540631
H           13.34115273377152       -1.82921196235826       -6.70639961700622
H           14.36068026735017       -3.26801484370602       -6.83834696989856
H           12.27774750255197       -5.26536722243171       -5.61926795294182
H           13.20984307726987       -5.59795302234177       -7.08311650569564
H           11.44322257752652       -5.67232312379225       -7.11335702237409
H           12.16231355380047       -2.44643336359342       -8.86245567754596
H           11.38871251353082       -4.01710447795454       -9.02839762007778
H           13.15232748622825       -3.90173401563641       -9.02266160867604
H            8.67074513376128       -2.66944989336414       -7.38952947606944
H            9.21676012149885       -1.00810765260864       -7.15390228170889
H            7.48819213524708       -1.37819600513248       -7.11834614214665
