41
 energy: -7.703161767271 gnorm: 0.000677024277 xtb: 6.6.1 (8d0f1dd)
C            4.45511668245864        1.61709576322877        1.28539822298994
C            5.26055782479405        0.65522948596237        0.42768168175782
C            5.41480504849732       -0.68598490034117        1.06591467338771
C            4.60219313648844       -1.75778842709966        0.89281404283935
C            3.42848919487108       -1.86479422964640        0.00264050117222
C            5.06507523053154       -2.84955994547691        1.74448406781634
O            4.54328415765297       -3.94651528591575        1.80661860576076
N            6.18535693565944       -2.36459023999942        2.43999204547821
C            6.41598139047886       -1.03705326899929        2.04578720679791
C            7.43611552347096       -0.29603442338924        2.56046945220628
C            8.26909022931791       -0.91937657905816        3.52122767554603
C            9.38495353265083       -0.44220224011638        4.20747230707535
C           10.00018451135591        0.89703670745891        4.04135064638189
C            9.84799748365650       -1.49258763907097        5.02392262777187
C           11.07047781835557       -1.46470859372872        5.88636284724810
C           12.34067960465249       -1.76028188696010        5.10594887654689
C            9.02092253084530       -2.58778898510379        4.83296872682995
C            9.13892410922106       -3.91855413788692        5.46037828776661
N            8.05298126716831       -2.23353318682033        3.91969850350490
C            6.98894008090930       -3.01703444424686        3.38970136738717
O            6.81836950942546       -4.15975224723909        3.75278515224391
H            4.34380850799228        2.59544823292578        0.81338788336885
H            4.93125748413368        1.76999020967248        2.25509427413738
H            3.45489332635129        1.22678525555094        1.47866940347518
H            6.25545439578906        1.06740677148665        0.22043615092923
H            4.78915002897195        0.53260033612405       -0.55486727053910
H            2.69337096914717       -1.09226792504633        0.22886161764525
H            2.94928504642155       -2.83677376929676        0.12876492889468
H            3.72068785345634       -1.76744783473440       -1.04308092594924
H            7.60852882625588        0.71642469181021        2.24857342814615
H            9.23861914509610        1.65626595061223        3.86183788711700
H           10.68877883839644        0.90381306731577        3.19604241171318
H           10.55544725390924        1.19167808043243        4.93175843547668
H           10.94833603874376       -2.18738869373140        6.70197067218596
H           11.14063628869133       -0.48804900413401        6.37940692080908
H           12.29186716942876       -2.74396267751546        4.63612826220653
H           13.22819651120484       -1.74105790618905        5.74147103186925
H           12.48971323597775       -1.03136098441647        4.30780125543945
H            9.05483021782979       -3.84903975340093        6.54482774695903
H           10.09413653868872       -4.38286446766896        5.21548551147188
H            8.34386652105478       -4.57427087534559        5.10294285613677
