35
 energy: -6.810928446217 gnorm: 0.000733151241 xtb: 6.6.1 (8d0f1dd)
C            4.21244050747304        1.76839939940501       -0.48528245235424
C            5.13144958658724        0.58764607399195       -0.21946022044994
C            5.32604295339836        0.33239857468462        1.23884007231744
C            4.58819936183271       -0.49924035800541        2.01550303599150
C            3.46798784405424       -1.36694795444696        1.59886792749058
C            5.05788220142160       -0.40495152615317        3.39457610297581
O            4.59345557010449       -1.03307211385198        4.32669396897035
N            6.10500257198338        0.53143424269311        3.39580416885758
C            6.28577590590635        1.00203125255625        2.08528229693955
C            7.22726694620203        1.93591455805326        1.77429259413539
C            8.03364724616510        2.41810656448945        2.83327168473677
C            9.07143006874121        3.35031078404952        2.84147735091196
C            9.60220147801183        4.08586785606503        1.66910151851072
C            9.52742978266519        3.43940444155848        4.16251978741944
C            8.78499369461945        2.58730452027060        4.94977304161071
C            8.92915871871861        2.36281743163866        6.40093634770532
N            7.86655899992297        1.95915782027859        4.13648531501495
C            6.88096641584581        0.98959639409666        4.47339232198714
O            6.74685561743586        0.61290654363632        5.61641954178247
H            4.07461616369082        1.95032690108234       -1.55286383275230
H            4.61061603896343        2.68224067396166       -0.04181079082062
H            3.22680759023419        1.60427579834891       -0.04738028002327
H            6.11028686740343        0.75152247398578       -0.68585200383867
H            4.73587759449233       -0.31889857652701       -0.69265533379822
H            2.63780080661784       -0.77526253263622        1.21336722311970
H            3.10469780251785       -1.94458826164314        2.44989918890852
H            3.78097755570573       -2.06805729711300        0.82525506093785
H            7.35790238452438        2.29140753341465        0.77012744706316
H            8.79435192976822        4.55198090288977        1.10446280101776
H           10.13864170963439        3.41274434418919        0.99991408804020
H           10.29104525190052        4.87194877602149        1.97938500992180
H           10.32643978918752        4.07247624468848        4.50865133493417
H            9.91894224141127        1.97292410465519        6.63830609793193
H            8.18886782068672        1.63862891574036        6.74396835553601
H            8.78071298217224        3.28921549393188        6.95569122926938
