44
 energy: -8.323398001495 gnorm: 0.000465746154 xtb: 6.6.1 (8d0f1dd)
C            4.36919499661762       -1.57446455937867       -1.64616774040640
C            5.06938162494752       -0.68703907987503       -0.63034816009029
C            5.17333055262339        0.73110990771502       -1.08576180124169
C            4.30027703709656        1.73245436469248       -0.81295790439271
C            3.09196575749877        1.67363409605574        0.03411116689757
C            4.73770741426384        2.94471191887257       -1.49840126887059
O            4.16463235337240        4.01540973034017       -1.44081210792784
N            5.90438874000042        2.60640756320505       -2.20232480179191
C            6.19057718797650        1.25253030777506       -1.96841548816435
C            7.26590807714596        0.63345309539961       -2.52922693915505
C            8.09986463360623        1.41682950367465       -3.36253506418695
C            9.25694789616396        1.08560204008869       -4.06321683544432
C            9.93074055698785       -0.24542498563281       -4.06031736711657
C           10.83730065564020       -0.45027087729466       -2.85477664179946
C           11.55212808707528       -1.77012672320559       -2.93352825465226
O           12.07749460096152       -2.05853676050542       -3.98813729378942
O           11.56886159480637       -2.55015338090059       -1.82052021921072
C            9.70261131623195        2.25292233637953       -4.71089248446766
C           10.89962840849408        2.35586730629917       -5.58189908358690
C            8.80671396637174        3.27150180770904       -4.42649596572096
C            8.85785999644634        4.66947356791601       -4.89661565227032
N            7.83301066829717        2.75934169508926       -3.59826606614244
C            6.70724021089997        3.41302145353748       -3.02463051089424
O            6.48805357528840        4.58175496520456       -3.25130675346390
H            4.29769989652115       -2.60980563258156       -1.30786775280473
H            4.90022182513552       -1.57345622789361       -2.59910723124410
H            3.35675623925628       -1.22021137153715       -1.84463589024693
H            6.07589603142588       -1.06721009851598       -0.41950626743108
H            4.54310200286913       -0.71733863608529        0.33083989489003
H            2.41317180985638        0.89054123969365       -0.30371815003568
H            2.55903160684752        2.62481024749287       -0.00722580487389
H            3.35401085817715        1.48003459512677        1.07437947891671
H            7.47569202781966       -0.40341362256091       -2.34894555910631
H           10.51854197249683       -0.36561470393664       -4.97679616384409
H            9.17721345060430       -1.03934199341326       -4.09809631901023
H           10.25533403494773       -0.38393807265440       -1.93143959344766
H           11.58031055422243        0.35100051272810       -2.80521937566031
H           11.10287608566136       -2.12209770490049       -1.06930348220804
H           10.68651374951866        1.96934532556228       -6.57871455538021
H           11.73315149520309        1.78677632529241       -5.16975053112774
H           11.22476509108298        3.39106877455041       -5.68446943650042
H            9.75048762932088        5.17344763800231       -4.52649226733604
H            7.98736745180899        5.21892852518073       -4.53510342616232
H            8.85804627840690        4.71603558728776       -5.98551432949863
