41
 energy: -7.827734664373 gnorm: 0.000920179363 xtb: 6.6.1 (8d0f1dd)
C            4.67451594267933       -2.15046369128979        0.34114799592769
C            5.26323667048019       -0.77365687775708        0.08304518183512
C            5.25656013840113       -0.41151873330014       -1.36533841123563
C            4.28468347374019        0.26765890384851       -2.02214236132742
C            3.04652507563451        0.84430450240115       -1.45971533139006
C            4.63565329766876        0.35028684167224       -3.43658680864895
O            3.96335272534443        0.90252522347167       -4.28464799148649
N            5.86027655320385       -0.32352548051745       -3.58484605791264
C            6.25968779291819       -0.80224673486517       -2.32807398087404
C            7.41697717380656       -1.50890231894709       -2.14608711224563
C            8.21976991962176       -1.74816232263205       -3.28187367641678
C            7.84461225319139       -1.27743571272226       -4.54707826947996
C            8.82875564791191       -1.65644900277411       -5.46819357084820
C            8.83827719164981       -1.31574376676995       -6.90654869737551
C            9.80466469774698       -2.34691574891325       -4.76111704574937
C           11.03742841082818       -2.90877847653922       -5.34086459801223
O           11.22271893125284       -2.83962035002836       -6.54243367217320
O           11.92197015889961       -3.48718827361685       -4.47521672810131
C           13.02692694616384       -3.95152419662852       -5.18115640122097
N            9.42337726194756       -2.41246117585552       -3.42856721915629
C           10.18282979104839       -3.02605220357414       -2.34775352826301
C            6.61331361899043       -0.53240794176322       -4.75632673228929
O            6.28980581027466       -0.14217557759095       -5.86344035067277
H            4.68328342130715       -2.41029127279230        1.40145747640975
H            5.23300740560598       -2.92108544014021       -0.19217136152503
H            3.64131634134044       -2.20658312699494       -0.00447652647744
H            6.29229149128525       -0.72028201078449        0.45801541204341
H            4.71240603122231       -0.01072945894728        0.64585134185844
H            2.41293215784307        0.06799288459448       -1.03050837809653
H            2.47891838433448        1.34893523463330       -2.24327826763788
H            3.27279261110722        1.57575747173914       -0.68370554953290
H            7.70942779685949       -1.86515846778444       -1.17735429258301
H            7.82043748186226       -1.16756697688500       -7.27153125917213
H            9.31106985327354       -2.11005571118589       -7.48590604135312
H            9.39627706195917       -0.39505358915332       -7.07712717449827
H           13.73181904285052       -4.41142015484795       -4.48563564671980
H           13.49788776852656       -3.10860608405049       -5.69256197812728
H           12.69255772384316       -4.68479562963492       -5.91894816792819
H           10.80452763902173       -3.82588141594804       -2.74306704509877
H            9.51093748264303       -3.44330218971704       -1.60166966009584
H           10.82288082170979       -2.28171094740784       -1.87998751434676
