61
 energy: -11.285164457236 gnorm: 0.000887231848 xtb: 6.6.1 (8d0f1dd)
C            1.05871261380474        0.78597692339160        0.32778036078176
C            2.34129307465363        0.06208755063085       -0.04932675954476
C            2.82557126286607       -0.85124234909174        1.03087303522707
C            2.48025934874398       -2.19521256417338        1.19277279401684
C            1.54601219579153       -2.93760304279560        0.30988998288306
C            3.12065724732918       -2.66574080516712        2.37772377766091
C            3.13559057777564       -3.92803649227941        3.02310431871910
C            2.62156116601279       -5.13471959975841        2.39791389230193
C            2.87545691235570       -5.48470343070949        1.11954487054534
C            2.38249829129704       -6.66908224899571        0.45256679917768
C            2.79113530894371       -6.94071887534785       -0.85685501065293
C            2.33699236667938       -8.05465640246135       -1.52055117938446
C            1.46314456104921       -8.92731393909063       -0.90089508665447
N            0.98088923163642      -10.11094781327809       -1.60952308934196
O            1.36512498414805      -10.29977445149300       -2.77147852067776
O            0.20718921169778      -10.87698118803915       -1.01924500018479
C            1.04654146640284       -8.67411148715114        0.39205802858167
C            1.49663066687311       -7.56252909439602        1.06334055049747
C            3.73353798237175       -3.96883313841212        4.30606603657375
C            3.91397561671944       -5.02877595132486        5.23994762737677
C            3.45300836580247       -6.43072361200787        5.08908176573183
C            4.60272034841640       -4.50961696472019        6.33977261879139
C            4.95228550575692       -5.24005664077219        7.59717747899706
C            3.78213559148784       -5.32790729263305        8.56320019199085
C            4.86264955318145       -3.14113869779186        6.09810854356166
C            5.56485315366001       -2.17064851985337        6.95636247626267
N            4.34426439724277       -2.86906995225466        4.89586656214574
B            4.47692575008472       -1.49860023278032        4.24214364780879
F            5.82242293174983       -1.21009692949404        4.04082054835926
F            3.86945366723904       -0.54344370043406        5.05098688143489
N            3.76112605463534       -1.54590505131558        2.89671032329416
C            3.62831396483934       -0.46103241561467        2.12622597510473
C            4.19895591030216        0.86429769834893        2.42550364666007
H            0.71180012570729        1.44866358631425       -0.46746868321065
H            1.19844576332876        1.39129635448024        1.22458894561584
H            0.25580253696363        0.07957734755928        0.54299052325264
H            3.13204259668062        0.78495125641326       -0.28348844583923
H            2.19972903074345       -0.51596430005262       -0.97035739780445
H            0.76265323368795       -2.28188353693067       -0.06987176762714
H            1.05328035042486       -3.74662658769404        0.84866411929501
H            2.06905141893919       -3.36121405152706       -0.54760084478906
H            2.04648882039290       -5.80527921281528        3.01034095588116
H            3.52274065285285       -4.84240394067638        0.54927003626489
H            3.47210309931526       -6.26474726642504       -1.34475981991573
H            2.65140051148253       -8.26761021019776       -2.52821734612485
H            0.36383184622201       -9.36472935889095        0.85743146802519
H            1.15583500045757       -7.37797488043166        2.06602157378012
H            3.77180827440536       -6.84482293361073        4.13215971628014
H            2.36634746088180       -6.49169002840381        5.14896719429211
H            3.86110468933736       -7.07036205260486        5.87096490661234
H            5.80207757726823       -4.73762691089915        8.07500947366010
H            5.32092248133694       -6.24096383166500        7.34325322186407
H            3.42882432813466       -4.33359672597121        8.84035958361096
H            4.04657559508086       -5.85366844911276        9.48248223878890
H            2.93824777941430       -5.85269551879173        8.11359448874471
H            5.05941356302105       -2.05895304054785        7.91615379441006
H            5.58971830914750       -1.19391218848907        6.47042157708696
H            6.59358233494792       -2.48244087565651        7.13828047303474
H            4.80273267267541        0.81285549781177        3.33267325801669
H            3.41271012226118        1.60164375816035        2.58630062214304
H            4.83823054332755        1.20873881192196        1.61270804660974
