38
 energy: -8.077439894539 gnorm: 0.000834993373 xtb: 6.6.1 (8d0f1dd)
C            1.05864178174768        0.16899474069627        0.00616639606771
C            0.27351300031617        1.26377833019445        0.01783329240843
C           -1.18730771290619        1.24037676447759        0.01208756990777
C           -1.92031961957300        0.34509541177594        0.84171299668839
C           -1.29286685488275       -0.50491513543221        1.78902871293608
C           -2.01290568624293       -1.35807670790695        2.56605117931551
C           -3.41098921999719       -1.41299642094579        2.45894730515315
C           -4.06217823414199       -0.59666862760778        1.59146303095711
C           -3.34576944673166        0.31543830670275        0.77048296171695
C           -4.01463428674270        1.18955009880554       -0.08171446244539
C           -3.32394523838493        2.10233705702738       -0.87338006120484
C           -4.01400290451967        3.00072510785400       -1.73099068900281
C           -3.33360954807962        3.87490607220410       -2.51602146723646
C           -1.93033482926924        3.89929926317204       -2.49611330088354
C           -1.23477053763555        3.05622892006365       -1.68620924657577
C           -1.89837140412602        2.13483320726070       -0.83536128240390
C            2.51055237241064        0.16613032328228        0.03015224851864
C            3.19413136612100       -1.05218212331263        0.04702682351895
C            4.57036082533363       -1.09285429203443        0.07677873199312
C            5.29783091218022        0.08012628786499        0.08933321277063
C            4.64273881313443        1.29527520501313        0.07234790422136
C            3.26610713014637        1.34132899701306        0.04383118596091
H            0.57931265162987       -0.79220335443536       -0.05261445788856
H            0.74533645956508        2.22999818232394        0.00214176489145
H           -0.22731256705700       -0.44892587473378        1.91865241110794
H           -1.50990193750691       -1.99432757845886        3.27593573437114
H           -3.96682335920736       -2.09830085744192        3.07792181902851
H           -5.13591659306911       -0.62605059142603        1.51980188634922
H           -5.08879325763417        1.16649400078492       -0.12122385093445
H           -5.09013563867232        2.97679453963936       -1.75018031494790
H           -3.86935487579411        4.55091974956292       -3.16233357776605
H           -1.40310236208257        4.59119239512457       -3.13259119328171
H           -0.15963780703219        3.07768504014134       -1.70009852493608
H            2.62905494409060       -1.96870217962980        0.03943197343125
H            5.08071497781093       -2.04224444359386        0.09138355905029
H            6.37500056038853        0.04735065879113        0.11285171424429
H            5.21102686363994        2.21124924959147        0.08197694976870
H            2.77104126277402        2.29577027759181        0.03131106512961
