48
 energy: -8.267142144759 gnorm: 0.000585219631 xtb: 6.6.1 (8d0f1dd)
C            1.04614262887764        0.02583540692508        0.44471012961719
C            1.93283028456008       -0.88506038648048       -0.38840641266026
C            3.07532626303865       -1.44750204892499        0.39671454368241
C            4.26630410608588       -0.78532225439616        0.72067926257842
C            4.62594155930509        0.58680423421139        0.28585972354227
C            5.04221141324803       -1.66290574660774        1.54020773342282
C            6.29042837248800       -1.52485261491757        2.16147984467272
C            7.04849450617595       -0.24958626141999        2.10625584736880
C            6.79365475766274       -2.64812726628105        2.83095305281251
C            8.03406796335846       -2.90488943040150        3.49379737571112
C            9.18627344426254       -1.98027789725406        3.63058153205484
C            7.97806056833406       -4.20445092309051        4.01307222156632
C            9.02867550205512       -4.87465440307957        4.84104224421828
C            9.00497286194906       -4.42052387778206        6.29143233439636
C            6.72554492297834       -4.76757377404607        3.68555284805564
C            6.20073937448595       -6.10163236389249        4.02563203526206
N            6.06453469406436       -3.83521467286232        2.98403108378272
B            4.66204602609359       -4.06569458895011        2.43194218976502
F            3.77392025902608       -4.25385873572844        3.48827041962247
F            4.67708738064036       -5.16563127784785        1.57695863471447
N            4.26044806015974       -2.82120196084193        1.64771057448163
C            3.09192392091030       -2.72539733613005        0.99672594078443
C            2.05316437232793       -3.76967108835058        0.96337334134128
H            0.21678952474225        0.43672600114436       -0.13469569024375
H            1.61473642610333        0.86509351440897        0.84861191289624
H            0.62280060562825       -0.51093266705661        1.29543537547407
H            2.32340468940344       -0.35083192406544       -1.26296225805363
H            1.34398509875782       -1.71285609741754       -0.80266434973217
H            3.98916366850566        0.92299738682398       -0.53217902497637
H            5.65543963494385        0.62781173310517       -0.07085308538918
H            4.51088777124629        1.29884073905458        1.10373516279289
H            6.37873478414253        0.60773129250774        2.06517821160464
H            7.70232739040834       -0.21903607376754        1.23402132611293
H            7.65657349526682       -0.11153676194879        2.99869781085732
H            9.40876856419680       -1.48751775663977        2.68381350620639
H           10.08760407921790       -2.51296562911809        3.93330029141668
H            8.98787071848472       -1.21763554102262        4.38433296060621
H           10.01284595045838       -4.69051143106002        4.39401203545513
H            8.88963889563281       -5.96106966760377        4.78152608621739
H            9.16752681171587       -3.34439974965696        6.36890539366792
H            9.77217257157396       -4.91493192920066        6.89096270294062
H            8.03807919595430       -4.63104381126647        6.75142356050411
H            6.79415647721763       -6.88628670630325        3.55596363048935
H            5.17304743200340       -6.19828366283835        3.67259696801849
H            6.20507699947553       -6.26118562752261        5.10407028684348
H            2.37735147291332       -4.63556828730462        1.54263570541410
H            1.86144945702794       -4.09896641534034       -0.05816875941045
H            1.11910504289035       -3.40582165976149        1.39246373949319
