36
 energy: -6.233338851481 gnorm: 0.000887633025 xtb: 6.6.1 (8d0f1dd)
C            1.32108072172382        0.48118303128838       -0.54150204739841
C            2.14720567566747       -0.20666232166288        0.53322918178280
C            3.12125480473790        0.72013529752894        1.18814201649306
C            4.35951664854701        1.12323790520227        0.67216691820833
C            4.95877467964009        0.65802150107445       -0.60194245354065
C            4.92083837386849        2.06702927484694        1.58438289359079
C            6.12114599863898        2.78444720589950        1.58227827838785
C            7.11630497254738        2.63434915161331        0.49439316402913
C            6.34141776402975        3.65243404004181        2.65733922068857
C            7.42588068057160        4.52237868113069        2.96499860041336
I            9.18822940983808        4.84903589981696        1.89235212497373
C            7.12487019718855        5.16567618580169        4.16212626625581
I            8.30666149332990        6.56875373767718        5.15919621154744
C            5.87126797162588        4.72423069837130        4.62334470005165
I            4.90434392815515        5.34534002878816        6.35739620578519
N            5.43297751007034        3.83117909678006        3.71882310816966
B            4.09713362193021        3.09695188092705        3.81768060622870
F            3.05699701500763        4.02026203762554        3.79883183541345
F            4.07734480068475        2.32037727720093        4.97102208531201
N            3.96768828460518        2.18308236343649        2.60335307420789
C            2.89492837576896        1.40390152821496        2.40313935385594
C            1.72624193959744        1.33386754250284        3.29748271491472
H            0.60619651541463       -0.19848397263569       -1.00944118792800
H            1.95746796293887        0.88476762287310       -1.33015977793746
H            0.75899588066077        1.31864583694827       -0.12554743835061
H            2.68938928398818       -1.06315616914913        0.11551825763779
H            1.49024942512400       -0.63278233640998        1.30080941065669
H            4.31334468132315       -0.06054793830815       -1.10643830854716
H            5.91741020265233        0.16916764317871       -0.42756876887753
H            5.11548102570745        1.49239547855856       -1.28587606427012
H            6.69390679270918        2.92632907161358       -0.46714814923673
H            7.46755293222810        1.60476365076076        0.42408065983856
H            7.99688437252083        3.27066358019254        0.67469913150697
H            1.88503336412492        1.97249258400467        4.16814361687141
H            1.56400158941625        0.31520185936658        3.65097028870831
H            0.82411110341721        1.67436104489900        2.78852427055523
