67
 energy: -12.239597292488 gnorm: 0.000774643362 xtb: 6.6.1 (8d0f1dd)
C            0.46574881722678        0.01829705506160        0.31235451518863
C            1.93914667118133       -0.17919297632259       -0.00482023447424
C            2.59104202854076       -1.16984271417696        0.90540608611818
C            2.54120876823601       -2.56355504372289        0.78379855030027
C            1.85748891985174       -3.33440571799970       -0.28295273796383
C            3.22035105938013       -3.11225915552757        1.90415873105177
C            3.40437145679306       -4.44732818150612        2.31820856265420
C            2.82547054323035       -5.58117553241952        1.56176367662947
C            3.56316240656902       -6.16754730319847        0.52873894573061
C            4.92977367529832       -5.68636961418364        0.18554941993608
C            3.00233141417361       -7.23609059934063       -0.13317116604505
C            1.74818743567844       -7.69578023838061        0.21121503167383
C            1.17317039443739       -8.84965259745574       -0.52680059214016
N            1.02370051447281       -7.14868314904392        1.18312140203893
C            1.53707821729192       -6.10434392059079        1.85930063914362
C            0.69827598834456       -5.55586114028957        2.90416597326064
C            0.89439481442122       -4.46727020576092        3.72945510058831
C           -0.15540545007207       -4.23785366850297        4.63984696553874
C           -1.17109025462157       -5.13540287820564        4.53366607201101
S           -0.83986543216695       -6.28158441274282        3.29615631802720
C            4.07808844507335       -4.63959337625607        3.54167540682347
C            4.37677342593412       -5.82169433854171        4.27048705177425
C            4.02405597285260       -7.20501035525558        3.86960708626178
C            4.98528209473222       -5.43189808781707        5.46930816047871
C            5.38503223629774       -6.33623806699228        6.59089700219858
C            4.20614345612193       -6.72867854947133        7.46690245881376
C            5.05903359582533       -4.02015387608057        5.49596148455459
C            5.56611443750053       -3.14561867000487        6.56779507906806
N            4.51557684387059       -3.59204580159740        4.34800670038199
B            4.30458598821558       -2.11500820495174        4.02365473761155
F            5.53520958069022       -1.46579446370786        3.98224451919235
F            3.46151055594125       -1.56064013159109        4.98432782867692
N            3.62662275345295       -2.01546759926625        2.65923794933639
C            3.27309898607210       -0.84901410275899        2.10156620626360
C            3.53672250495619        0.47935899567165        2.68147060460941
H           -0.00540963201659        0.74340572364526       -0.35457585470336
H            0.32940603368903        0.37205310151115        1.33572416389050
H           -0.08498038289286       -0.91962148833394        0.22349751922167
H            2.47471569972530        0.77546141457039        0.06565079870933
H            2.07068342540473       -0.50409917300074       -1.04391622960748
H            1.39135747606287       -2.67782077715052       -1.01706811955277
H            1.07643144656943       -3.96803567225487        0.13852354734599
H            2.56268606537736       -3.97600938267285       -0.81156169632052
H            4.99136829624214       -4.59956858010205        0.25103522094063
H            5.20731048098272       -5.97293352611253       -0.82936397615013
H            5.66991029108135       -6.10422968996755        0.86867427005053
H            3.54684235929045       -7.72086110324593       -0.92377088510773
H            1.07237100590913       -8.62277759740292       -1.58854038762969
H            0.18417042243915       -9.09300511680387       -0.13843067514224
H            1.80348612982844       -9.73325760297085       -0.42268176087826
H            1.76277179767663       -3.83268214288179        3.69707575746671
H           -0.15013282306408       -3.42527181109827        5.35217459521529
H           -2.06294977143591       -5.14267879341558        5.13121714583471
H            4.33345885865294       -7.40337451155413        2.84357334083522
H            2.94674840826931       -7.36194025200734        3.93213724584728
H            4.50746110138682       -7.94361396357989        4.50838600271562
H            6.15680069192336       -5.84028282304289        7.19187444613225
H            5.87385323884434       -7.22705536908413        6.17885855541236
H            3.73386648487899       -5.84849993784597        7.90634847965292
H            4.50205747440139       -7.38890572041825        8.28489982812057
H            3.43989153525583       -7.24465858048188        6.88593712717414
H            6.60556474635500       -3.37430986142112        6.80208380455108
H            4.97274635519377       -3.25641918391883        7.47516358652968
H            5.51121877498721       -2.10247827022396        6.25439304515011
H            4.05681942923459        0.37267640952484        3.63450791001223
H            2.60688084505223        1.01888744306765        2.86231450340579
H            4.16288086888880        1.07801546162215        2.01969515559140
