77
 energy: -14.953618960725 gnorm: 0.000866231258 xtb: 6.6.1 (8d0f1dd)
C            1.60957929151567       -0.87610384015481        0.24293506012139
C            2.87637989433845       -0.03784998872416        0.29933252082752
C            3.12948631797330        0.70219413985764       -0.97538744810610
C            3.66610698981600        0.16406601329192       -2.15316188300135
C            4.12849382790504       -1.23232489116629       -2.34518904421342
C            3.65832036941269        1.19029590901522       -3.13197904139283
C            4.06665307580453        1.19356104249717       -4.48935957132228
C            4.57919165211552       -0.02397516645474       -5.15244260653787
C            3.68522122624674       -1.06608200554080       -5.53845295542692
C            2.29980683585616       -0.94639329475878       -5.30717149280296
C            1.43754553074147       -1.94905271511075       -5.64339397684491
C            1.92011053458824       -3.12087854681611       -6.22596942911788
C            3.25409579467129       -3.26688902165682       -6.47570183238856
C            4.17832256496198       -2.24700728511167       -6.15854009617649
C            5.57099288292940       -2.39636344797547       -6.41940010503071
C            6.08347391484632       -3.62445082474689       -7.07263790256223
C            7.01958237406350       -4.44642395715182       -6.43221096550853
C            7.49155256510195       -5.58599089117860       -7.04078324860216
C            7.04408636356672       -5.93693541298497       -8.29996493410071
C            6.12077055643928       -5.14162322538380       -8.95101922779316
C            5.64522523069030       -4.00010427253287       -8.34893752730639
C            6.46487282185021       -1.35269314458060       -6.04281391947118
C            7.84977480316035       -1.43549175296382       -6.30734072626456
C            8.70496051417665       -0.43678878117407       -5.94066313271651
C            8.22243051182992        0.70008962135062       -5.29246742467243
C            6.88879773170792        0.82570156215613       -5.03253388509944
C            5.97388254573958       -0.17916890097527       -5.40683325252396
C            3.94785706639351        2.43048769123388       -5.17157138171590
C            4.24300631121635        2.79517136927361       -6.51005331255885
C            4.79251096842061        1.90871384544843       -7.56493055643947
C            3.94941779084982        4.15873930008191       -6.64915002463369
C            4.18235517229597        4.99411692124489       -7.86760869429887
C            5.63244798796254        5.42987177806061       -8.00368726690555
C            3.46456584253431        4.63942690323898       -5.41347521900737
C            3.03562932513540        6.00494588401021       -5.06376062662842
N            3.47126714589328        3.59379714396995       -4.57362239569446
B            2.97273354030090        3.68048057915934       -3.13227606992011
F            1.62468908618230        4.03193394728670       -3.13356841141556
F            3.74215216815360        4.60899142916938       -2.43488264466590
N            3.13413585148631        2.30612406913836       -2.48636483389065
C            2.80004385309937        2.05460009375670       -1.21203961869719
C            2.21508663373331        3.03398074261703       -0.27965492313788
H            1.42752834407795       -1.41059490845478        1.17774367001835
H            1.66326088832405       -1.61688535769836       -0.55667299168706
H            0.73656097446597       -0.25251354311788        0.04252037881923
H            3.74537002868636       -0.66579563104543        0.53016050926611
H            2.81879360708494        0.68265361220590        1.12454561580764
H            4.32910074609332       -1.72071174551896       -1.39182805723373
H            5.04997519827773       -1.26063686452984       -2.92731008683384
H            3.37733252041674       -1.82153021070975       -2.87187062604637
H            1.92727994696159       -0.04685233967250       -4.84920040091424
H            0.38226374033485       -1.84003411553277       -5.45377050108848
H            1.23443892731987       -3.91325505933925       -6.47804247301126
H            3.61630249713167       -4.18023336161824       -6.91257540909665
H            7.35663100603857       -4.17866694076197       -5.44549670955835
H            8.21053796998319       -6.20823054440045       -6.53342223022642
H            7.41533195074686       -6.83067591390276       -8.77429063411034
H            5.77437710535775       -5.41535803088490       -9.93418942663589
H            4.93601168340694       -3.37194212265873       -8.86014694844780
H            8.23152588007526       -2.30172282337864       -6.81740338576556
H            9.75830700174799       -0.52461989572535       -6.15109864662686
H            8.90521393406919        1.48164835152701       -5.00190697026215
H            6.51684779953586        1.70691652738864       -4.53978931794060
H            4.33356811059595        0.92069345950345       -7.52234060710861
H            5.86967535094888        1.78686197349750       -7.44780451573244
H            4.60761692326158        2.31180742757198       -8.56040646513365
H            3.52404107673092        5.87088443088786       -7.82977406688731
H            3.86190884480852        4.43553370410244       -8.75535209271106
H            5.94979283267836        6.00967495752168       -7.13497248112989
H            5.79684747828722        6.04572741474460       -8.89048660233850
H            6.29774678530480        4.56733718608662       -8.07250496731109
H            3.85081390679056        6.71715771522960       -5.19506950246399
H            2.71961724390077        6.03967639219776       -4.01990366638791
H            2.19502115649381        6.32161617405720       -5.68198180956655
H            2.03370138024340        3.97763252133601       -0.79623925292268
H            2.88949585083847        3.23010004734952        0.55419849233329
H            1.26499584324758        2.67702889507416        0.11860620653952
