70
 energy: -13.219796303690 gnorm: 0.000542195768 xtb: 6.6.1 (8d0f1dd)
C            1.76643103578416       -0.91235165299263       -0.24367798542112
C            2.88995321161785        0.00979137810717        0.20085221336549
C            3.09861302591292        1.15119629802069       -0.74256607250324
C            3.78504420442440        1.10194525443317       -1.96482179716834
C            4.47403765416125       -0.08129157483391       -2.53521944583317
C            3.67121164878168        2.37989822920412       -2.56876725688723
C            4.15848399275817        2.87868199042105       -3.80085760276786
C            4.91362104221418        2.02426617273018       -4.74455965559342
C            6.32492229341028        2.14766586055522       -4.86206811934286
C            7.02819695187326        3.08999782433832       -4.08194703133896
C            8.37806417191849        3.23508077800951       -4.19587270842766
C            9.09324472321513        2.44456447552582       -5.09890122324775
C            8.45326483178965        1.51396252460661       -5.86125254399502
C            7.04957309759555        1.31452857124529       -5.76488943306142
C            6.37368199534465        0.33310218649530       -6.52410916689089
C            7.14553927834478       -0.58896378420609       -7.40771860272615
C            4.96555967498996        0.23856834489502       -6.45337655686847
C            4.22335879140149       -0.66788854531932       -7.25781152241940
C            2.86649105149819       -0.75377527344135       -7.16605141023620
C            2.16296171272683        0.05979758707987       -6.27451659270015
C            2.83153433610299        0.95383861075869       -5.49371100243564
C            4.23605059797749        1.07457125501250       -5.55711767623345
C            3.87748154263502        4.23860083681905       -4.07736153926602
C            4.19036600423969        5.05341771547945       -5.19508731404748
C            4.94964792582039        4.64127769145219       -6.40077428830545
C            3.68365058609483        6.33557378611458       -4.93687503756219
C            3.85234232815460        7.54338959377608       -5.80231295553817
C            5.22494613834225        8.17871654181073       -5.65064409324214
C            3.04960382977710        6.31975996344529       -3.67621856350047
C            2.37503296356119        7.42382575785655       -2.97164780022185
N            3.17748427674275        5.06952962205074       -3.20533381451026
B            2.58159112180185        4.61620825213826       -1.87413331205470
F            1.19620385630000        4.75592478921372       -1.92046813551624
F            3.13604975675020        5.36903215818306       -0.84161192340981
N            2.93197352019492        3.14402816290103       -1.66901158488322
C            2.56801365477566        2.44873248812921       -0.58039190289541
C            1.77357523316550        2.98482278289867        0.53858696213983
H            1.61631543316170       -1.74277470832706        0.44950712732625
H            1.97206346071711       -1.33636666670027       -1.22800741106872
H            0.82238358511219       -0.37017420560541       -0.32044357772866
H            3.82848041943671       -0.54757968895922        0.30634824651928
H            2.68167630096680        0.40788983195143        1.20161883259691
H            4.66620452345429       -0.83703151514264       -1.77393620458879
H            5.43461369695156        0.19896850843934       -2.96833183527777
H            3.87111504651135       -0.54134903397463       -3.31860893206437
H            6.47705313301781        3.70482646998022       -3.39204253750443
H            8.89629419567198        3.96370988102969       -3.59420122856871
H           10.15906965858523        2.57584043485830       -5.19120060204072
H            9.02366476148734        0.93488638646073       -6.56489303009312
H            8.12932842894234       -0.80962571021435       -6.99423180921350
H            7.27984418748964       -0.15709552602486       -8.40001567467656
H            6.64912981828268       -1.55244677114772       -7.51827379806016
H            4.73609906592459       -1.28521940017382       -7.97301795603189
H            2.32742684151133       -1.44935105913580       -7.78842119373184
H            1.08988096853710       -0.01727141665187       -6.21094349067301
H            2.28835108641332        1.58506992491406       -4.81234206082174
H            4.64809014431311        3.64663474939104       -6.72999149078854
H            6.02061466563285        4.62025800941127       -6.19713186395398
H            4.78039483078877        5.32597397194892       -7.23158418969139
H            3.06767213925101        8.26983550106644       -5.55767362992530
H            3.66793599022192        7.26649554302340       -6.84729346226095
H            5.40280909962773        8.48417840906610       -4.61806216901163
H            5.34204764788107        9.06166105799340       -6.28252841296881
H            6.01578641042428        7.47509801324860       -5.91608375189125
H            3.06224151148417        8.25083593598807       -2.79080220788113
H            2.00096963463122        7.07636033783950       -2.00729476589412
H            1.52764341000973        7.79585792658289       -3.54822706511507
H            1.47946871327428        4.01384408017017        0.32666091709730
H            2.35049691427807        2.98293467754690        1.46364799615190
H            0.86759221380322        2.39826939821175        0.69274772737828
