43
 energy: -9.329501724852 gnorm: 0.000937179654 xtb: 6.6.1 (8d0f1dd)
C            1.11371987819157        0.17067351404804        0.00678739256785
C            0.33116828756153        1.26833568300636        0.01204061677477
C           -1.12874993831707        1.25064830403474        0.02909276813409
C           -1.85343437796170        0.37242286784643        0.88457332221802
C           -1.21533034774144       -0.46350955623927        1.83675273081862
C           -1.92775142777400       -1.29887657893224        2.63983628913224
C           -3.32684601928079       -1.34858157389401        2.55518975139990
C           -3.98745775622914       -0.54511460419639        1.68280232548925
C           -3.27921946720933        0.34767574150639        0.83499339587387
C           -3.95752981847387        1.20789264624189       -0.02423138253371
C           -3.27488400539282        2.10334231411388       -0.84260177325959
C           -3.97419870860914        2.98491264237402       -1.70913418175251
C           -3.30229246531745        3.84202558899875       -2.51987035507976
C           -1.89961546325354        3.86509568859842       -2.51710353503361
C           -1.19516015323900        3.03688650626741       -1.69944353483853
C           -1.84957260330841        2.13306862631516       -0.82359235024893
C            2.56380510184197        0.16508816184270        0.00112736309561
C            3.33079291232057        1.34930701267785        0.00215792334548
N            4.63062148394683        1.41859869625506        0.00167142764165
C            5.30616379583113        0.23490896660820        0.00343497425522
C            6.71410497349834        0.24396945990391        0.00998121934978
C            7.42866791027054       -0.91857998262003        0.01432001453687
C            6.77219872724049       -2.15278537737930        0.01222797780863
C            5.41114869230190       -2.20463624212776        0.00579718674020
C            4.64628765833658       -1.01585876564519        0.00175440231679
C            3.24620937644038       -1.02599759807042       -0.00011691300223
H            0.63128396112062       -0.79016555073197       -0.02776356229585
H            0.80660369484821        2.23186809548025       -0.03214549571050
H           -0.14782716547932       -0.41015747051438        1.94879813026407
H           -1.41770158688225       -1.92450208740151        3.35408059841104
H           -3.87657723242581       -2.01910301367306        3.19528488949512
H           -5.06221274225361       -0.56996281612690        1.62816903099214
H           -5.03196332709229        1.18689517904437       -0.04924202879049
H           -5.05031956644408        2.96145475855759       -1.71529635889227
H           -3.84498058244850        4.50501537304803       -3.17365711680354
H           -1.37978026013426        4.54399299414674       -3.17322819778465
H           -0.12052568995485        3.05700498453746       -1.72638437814761
H            2.81698995942769        2.29441977525308        0.00311522783660
H            7.21550943632733        1.19588939979477        0.01192297023952
H            8.50591240140227       -0.88797551753797        0.01988733970582
H            7.34765784154271       -3.06394065852386        0.01623018133746
H            4.90127081055623       -3.15250396292406        0.00501540342321
H            2.71408380221600       -1.96014162396301        0.00088631096950
