67
 energy: -12.777533049453 gnorm: 0.000583115495 xtb: 6.6.1 (8d0f1dd)
C            0.71408798185597       -0.32625536630076        0.06438609083357
C            2.20536281287197       -0.04003939949403       -0.00812766181522
C            2.75191372883542        0.48130346606379        1.28221154306549
C            3.18703769074949       -0.29047413595070        2.36942257330397
C            3.23731457449045       -1.77198031616980        2.42237464261734
C            3.57478596001118        0.60448617778106        3.39899792729220
C            4.08655413241370        0.37107588128445        4.69843883934084
C            4.35280725224880       -0.99450036418119        5.19966721588061
C            5.48824944794062       -1.72476408208442        4.74198011865273
C            6.39701284864758       -1.16695475064404        3.81840221823935
C            7.48044659810442       -1.87220516193714        3.38307938347713
C            7.71481986753266       -3.17034602578952        3.84977167366432
C            6.86567647009824       -3.74469341029928        4.74735817251042
C            5.73079512992600       -3.04318710766377        5.22355578439638
C            4.85509763283888       -3.61239932774168        6.14980110009697
C            3.73731044463667       -2.91955777111119        6.61809862714392
C            2.84714644824202       -3.49591939895389        7.55736956393598
C            1.75529030262452       -2.80900183649647        7.99622560078123
C            1.49234838511150       -1.51882924361815        7.52265269893119
C            2.32794826450537       -0.93149135964734        6.61852675521034
C            3.47405798500716       -1.60273967363724        6.14309476136955
C            4.31585141346519        1.52026442158704        5.49326086553928
C            4.82940139890973        1.66551324022000        6.80725686749193
C            5.26637929372969        0.57156153720837        7.70854079225658
C            4.81789454760249        3.03375345997983        7.11533535277109
C            5.19984088555053        3.64660822536459        8.42500863159390
C            4.10528713061074        3.51128015387519        9.47114023059594
C            4.31610513374716        3.73848320254078        6.00042178350036
C            4.11296786837194        5.18935310148018        5.84404240460459
N            4.03997913206881        2.81673043503034        5.06486414661378
B            3.50412168447196        3.17133267076787        3.67940702760397
F            4.42782061575998        3.98044023467420        3.02181664041727
F            2.27231444693732        3.80804698564659        3.81353662797893
N            3.31689150943115        1.87620625477794        2.89197778757345
C            2.82992710305900        1.84349371040688        1.64170888009102
C            2.45153191160440        3.02677802606386        0.84963254394300
H            0.32141060874564       -0.70677073102587       -0.88093004512997
H            0.15366680687181        0.57559596947974        0.31636765822321
H            0.49180156102275       -1.06500832908918        0.83612991247268
H            2.41556468823676        0.68652770348969       -0.80266324732832
H            2.75828708487334       -0.94340528396214       -0.29324664284147
H            2.58404903168906       -2.21948713269363        1.67348018111617
H            2.91509201050017       -2.13821456462923        3.39738579563809
H            4.25032412212358       -2.13299099204465        2.24264501602714
H            6.22041002832083       -0.16928956472279        3.45635599403222
H            8.16175855544113       -1.42903775356710        2.67541151727939
H            8.57454401906172       -3.71581231473591        3.49654837983308
H            7.04897823795761       -4.74231642272346        5.10743699828947
H            5.04562709724107       -4.60682336380823        6.51026806982441
H            3.04609134215884       -4.48958264174984        7.92010082162925
H            1.08667901584146       -3.26032351020582        8.71085814539233
H            0.62343570940244       -0.98819864449735        7.87591206054641
H            2.12224035525341        0.06096707383783        6.25756132004287
H            5.82406245493483       -0.18676652179814        7.15847895674298
H            4.40882918264883        0.08783374194638        8.17689013514794
H            5.91516656266513        0.94355614995770        8.50123807920141
H            5.44493278073696        4.70401271271510        8.26635663038333
H            6.13130914691615        3.18845781560555        8.77894120511574
H            3.18529625341657        3.99614099699627        9.13953280599208
H            4.39036972969807        3.95875361597272       10.42568093833171
H            3.86441346722552        2.46287020560669        9.65580689196633
H            3.40263600466470        5.56616518889682        6.58092101373706
H            3.71678559900072        5.40455588276325        4.85014047048719
H            5.05279762571987        5.73089939737843        5.95723262859276
H            2.60090901262987        3.93248864149701        1.43921390339243
H            1.40245052700908        2.98304618584927        0.55648970217107
H            3.06068334398030        3.10564403622419       -0.05105350781443
