33
 energy: -5.786195341972 gnorm: 0.000915768571 xtb: 6.6.1 (8d0f1dd)
C            0.81712790471264       -0.45324123850075        0.04368809265740
C            2.28443788163204       -0.06485092410133       -0.03964017128390
C            3.19408994008430       -0.67100124630782        0.99137105386523
C            4.55349717390603       -0.34152859880140        1.09108936538937
C            5.31284779308136        0.61580654371146        0.25194226813747
C            5.10494804931376       -1.09501402137154        2.16018758624151
C            6.38335553208553       -1.14073881973505        2.68805148424220
C            6.61476757428294       -1.98661109799829        3.75964332317295
C            7.79047339043653       -2.24373138972231        4.51188836589916
I            9.64399089431803       -1.35079556540022        4.17701484521766
C            7.46456673524879       -3.18122291373274        5.48723557435569
I            8.75832769755601       -3.97497940691086        6.91766569438308
C            6.10420013903162       -3.52301041286658        5.36715606609156
I            5.05846298558545       -4.87417909234243        6.55181331972626
N            5.62354428461352       -2.80220725638449        4.33782286100290
B            4.17884274350085       -2.83074115888842        3.82782339691028
F            3.32369351701825       -2.42465676303982        4.84571028761325
F            3.87384807343808       -4.11107150042973        3.38077820421859
N            4.04509376327110       -1.85577313067533        2.65545884700022
C            2.89851223555134       -1.63612008840057        1.99127669814666
C            1.64268076697931       -2.33251372751343        2.32658808491505
H            0.22151108200160        0.04316864015453       -0.72516886588658
H            0.38921091512645       -0.17911294881190        1.00842596773388
H            0.68161814331949       -1.52653130890404       -0.09146390660641
H            2.37440814166230        1.02642920407378        0.03101747110132
H            2.67640418820027       -0.32175457295450       -1.03154682261483
H            4.68366183593813        1.06279325625298       -0.51727969844805
H            6.14406913749524        0.11644479094557       -0.24665130940514
H            5.72104566869031        1.42321726887512        0.86049316305708
H            7.17310062427034       -0.53642731113152        2.28437599968822
H            1.81232776379970       -3.00953762984979        3.16548938110172
H            1.28551536712825       -2.93156420813813        1.48952630143978
H            0.86535805672054       -1.62970337110047        2.62449707093648
