51
 energy: -10.068201673885 gnorm: 0.000908444497 xtb: 6.6.1 (8d0f1dd)
C            1.11171296627153       -0.04982803510147       -1.00673225075751
C            2.14274953482735        1.01614039399276       -0.67168719097325
C            3.30629934278661        1.00451409255326       -1.61204501768417
C            4.46329596615003        0.24455514599657       -1.47322513089066
C            4.77432408682604       -0.67909490896489       -0.35523530292529
C            5.26971843108081        0.48197429123655       -2.62368575354209
C            6.47760267538264       -0.08999212524135       -3.02350258675211
C            6.94833568638634        0.20621433527450       -4.28533208172631
C            8.00460718736122       -0.36383935789485       -5.10754344651414
C            8.99258185838219       -1.29702754525486       -4.81935528756709
C            9.84737388022859       -1.68809676760446       -5.82827057066258
C            9.72100474932397       -1.16788462368124       -7.11237919755803
C            8.74200431941657       -0.24492789601379       -7.41671609758752
C            7.87062455126886        0.17622578366504       -6.41283621476981
C            6.73481127714027        1.09531797809499       -6.39734515160869
N            6.29061923005761        1.07779959310716       -5.12248554143080
B            5.19089825016117        2.01508756345647       -4.64890988805607
C            5.87410432720247        3.41124078523897       -4.20911733701723
O            4.24802001460562        2.28358748919105       -5.76853017467869
C            4.73665700380536        2.35214096174740       -7.03325999181345
C            3.96316585496160        2.97146179790887       -8.03386972898205
C            4.42495232310910        3.08345276547509       -9.31420808434351
C            5.67838249111427        2.57767216485502       -9.65754672396417
C            6.45301094854319        1.95026162963025       -8.71778111424899
C            6.01273503258858        1.81073585729975       -7.39530569245152
N            4.54891283211237        1.39384564524698       -3.39655259541859
C            3.37506691932079        1.71507255433410       -2.83939162649638
C            2.38939931246109        2.66109036234182       -3.39398066863781
H            0.26558870052123       -0.03579073635998       -0.31633687619386
H            1.55171568458652       -1.04786362443688       -0.96937221770604
H            0.71859027458175        0.08736343712821       -2.01548192033012
H            2.50924246581817        0.88517484920469        0.35391430809768
H            1.68206558113773        2.01178400080797       -0.68768928139554
H            4.73079649877411       -0.15952354071266        0.60271871284984
H            5.77375073900681       -1.10253013910078       -0.45733581905682
H            4.06314938629970       -1.50543306565378       -0.32431196144032
H            6.97273006135827       -0.82155828182923       -2.41359925944959
H            9.07583593200646       -1.70134623397747       -3.82594551073599
H           10.61980766215214       -2.41039595717850       -5.62061163110453
H           10.39817869891745       -1.49558399060365       -7.88419419535390
H            8.64928646829882        0.13583703367304       -8.41619090810657
H            6.37806019913609        3.84517579400053       -5.06644494016641
H            6.59462673588247        3.23021176355477       -3.41800108197377
H            5.11029182156048        4.09530762390800       -3.85468679087977
H            2.99987721745049        3.36305760438453       -7.75971056088034
H            3.82037780542494        3.56707859377927      -10.06393496559559
H            6.03473393957564        2.67682030442834      -10.66980370380456
H            7.41771196770153        1.56978158813428       -8.99503922146898
H            2.66561328150403        2.94296693112764       -4.41072508379715
H            2.33669013421832        3.56878919676921       -2.79099859626985
H            1.39515769120801        2.21341691806661       -3.42889804617896
