61
 energy: -12.271683210949 gnorm: 0.000764339615 xtb: 6.6.1 (8d0f1dd)
C            1.02819095059755       -0.53255722139731        0.59109405640075
C            2.01538756827624       -1.06395594080813       -0.43588937532108
C            3.08214611060364       -1.91345699278185        0.17893954014132
C            4.29222516909637       -1.46055192858644        0.69485957437647
C            4.77751751169868       -0.05915785036399        0.68746770273418
C            4.98410298778893       -2.59216196808219        1.21420119315448
C            6.21487640400675       -2.69308087897196        1.86214521476883
C            6.57716793950630       -3.92072643028746        2.37437127373022
C            7.64927553026467       -4.34932663134899        3.25930816977062
C            8.75575870382605       -3.67399974284830        3.75867384215319
C            9.59832726353669       -4.33623785157527        4.62654654129444
C            9.34437009940328       -5.65101211504376        5.00407203359478
C            8.24646745232045       -6.33371047993814        4.52302228176455
C            7.38382522177088       -5.69133971671916        3.63585044605306
C            6.14831329551501       -6.10123669453900        2.97304543000956
N            5.77928238194915       -5.03286840182911        2.23507297608269
B            4.60693434990325       -5.11461903868866        1.26812155339064
C            5.13068426332311       -5.73568839449392       -0.11568851016741
C            6.06993442683139       -5.03913540393717       -0.84241316987402
C            6.52617588584329       -5.55376620122094       -2.02430244736610
N            6.05524835488840       -6.74793215868959       -2.47362898030517
C            6.53759290408771       -7.29786671353820       -3.74316379124974
C            5.12693043967987       -7.44111702751108       -1.76231410387474
C            4.65783628592591       -6.94249853540315       -0.57828826380264
O            3.56115559216759       -6.00513106903710        1.84765887839108
C            3.96466866872886       -7.10568056808381        2.53293069406564
C            3.06003374154861       -8.16835556019618        2.72031356204449
C            3.43695946774905       -9.30746552813764        3.37240078591822
C            4.73198849875311       -9.43682910304862        3.87372413714909
C            5.63502433052843       -8.41635490985739        3.73190433041815
C            5.28544752701892       -7.23048215942577        3.07386797510804
N            4.13636473304248       -3.67695360607585        0.98682981974827
C            2.99653902954950       -3.31525863486138        0.38743488976446
C            1.92014286697276       -4.23444470625343       -0.02410763294272
H            0.24997109520299        0.08281070074671        0.13437159656953
H            1.53254854325758        0.07638136745028        1.34325255981094
H            0.53538278073545       -1.34934756004571        1.12123996265878
H            2.48671187108138       -0.23560557716767       -0.97921320702899
H            1.49202382548181       -1.64921641340438       -1.20225566205859
H            5.00678721493355        0.26630242382651       -0.32805410199586
H            5.68227839611150        0.04995337098213        1.28592244595669
H            4.02573099011309        0.61614847078695        1.09766283197648
H            6.82487840150761       -1.82658625762279        2.03340007385297
H            8.93899944528677       -2.65431405831966        3.46908152249000
H           10.46171672821919       -3.82677610962741        5.02215715552136
H           10.01583270353430       -6.14329796777066        5.68848513879404
H            8.05607010277074       -7.34312496654031        4.83526009476784
H            6.43140631778450       -4.09711320211857       -0.47082622118483
H            7.25668218520726       -5.02621695764889       -2.61138979708452
H            7.39114445693735       -6.73117944108578       -4.11099070096723
H            5.74579504152741       -7.25894587910912       -4.48932894256854
H            6.84424709838142       -8.33393496943118       -3.60942714077254
H            4.77376309153307       -8.38108487158225       -2.14788347979919
H            3.92767007759470       -7.47905914827515        0.00076110508415
H            2.06477134734282       -8.06284375611656        2.32683446801641
H            2.73221194117322      -10.11288809282051        3.49945540057794
H            5.01964505027631      -10.34302423651139        4.38115645292812
H            6.63002309538118       -8.53030705508585        4.11865767929394
H            2.01589913376092       -5.18581793535316        0.50074075662324
H            1.96730983892717       -4.43301465940056       -1.09587869009863
H            0.93803326923602       -3.81956705517751        0.20680807151066
