76
 energy: -15.387790267815 gnorm: 0.000444018973 xtb: 6.6.1 (8d0f1dd)
C            2.08971348669270       -0.29118613004468       -0.68822414936131
C            2.96328455008692       -0.57667262601611        0.52278584603977
C            3.68999947099030        0.63970273043369        1.00546837945155
C            4.98448995657606        0.97888282352969        0.68983959225520
C            5.92731222025787        0.17843432140832       -0.12961311195382
C            5.27705190329634        2.22085620444515        1.33779759030707
C            6.48255034674000        2.92698174220084        1.32428838598458
C            6.54677568811109        4.11985274610979        1.99488349262024
C            7.55864238453451        5.15726354755348        2.09929362629932
C            8.84813906114030        5.24690518864749        1.58825329587412
C            9.57432039911326        6.39327640251731        1.82696626513456
C            9.02890413329175        7.44598722804403        2.55709381742041
C            7.75088166231733        7.37421940743901        3.06787954179411
C            6.99909850055743        6.21924905470052        2.85160111280536
C            5.64448669752403        5.82804310127163        3.22636734222072
N            5.47539124435363        4.59794744767801        2.71327772527576
B            4.23135513395205        3.76683706920913        3.02187713754632
C            4.42333394471822        3.09208130720345        4.46705012772510
C            5.68646370529199        2.74190024444201        4.88835261326246
C            5.85244153546668        2.15801266731215        6.11332709083548
N            4.77345320282905        1.91989169320611        6.90533000018129
C            4.96176592934541        1.30915168376881        8.22358666647870
C            3.52335405838992        2.26748222299728        6.49916438197413
C            3.33694397028138        2.85233829992407        5.27709021186098
O            3.08542980918917        4.72200058447793        3.08531839082085
C            3.26875144684419        5.89948087469910        3.75478710150705
C            2.17176653478095        6.55766449864959        4.32922190609441
C            2.33477716700910        7.72773238074972        5.02066285236728
C            3.59892255576745        8.28903209777886        5.16236480076081
C            4.69298443454610        7.68035261012591        4.60047968464058
C            4.55945699487343        6.48800234805542        3.88526717756324
N            4.11966896400589        2.60272015920524        1.99649982955798
C            3.12174350263079        1.68434144794308        1.80975803976619
C            1.77472660919143        1.67534847880592        2.27637943774667
C            1.09191276353017        2.75211520173308        2.72820718605924
C           -0.27750664294965        2.75169743032660        3.15549561323469
C           -1.01418141843238        1.56917624487678        3.33432067960726
C           -2.32056472176696        1.60871393377624        3.73293884555574
C           -2.97720755093427        2.82937208049281        3.97612028820048
O           -4.30051875232754        2.77588025763819        4.36890447130359
C           -4.91068610308387        4.03073746125968        4.55718537587536
C           -2.23631637976247        4.01300273451815        3.80014424039106
C           -0.92865781264211        3.97088910187662        3.40462747392219
H            1.56456895415508       -1.18308863865628       -1.03662806643348
H            2.68515318334284        0.08891157268327       -1.52007839424179
H            1.33858898541913        0.46730673752417       -0.46106299341876
H            3.69241674265218       -1.36271674371747        0.29139506889218
H            2.36184656299252       -0.98528574903663        1.34390876541166
H            6.40400435183942       -0.59552631076276        0.47296498342970
H            6.71104214359044        0.80545467512060       -0.55508469902434
H            5.41162684346686       -0.30700216487240       -0.95882471186131
H            7.32819706405540        2.56794042150924        0.76900566485740
H            9.25693297704061        4.43287075526824        1.01607122375384
H           10.57549133892868        6.47919692874182        1.43754548036964
H            9.61575931433161        8.33493241650604        2.72110926501856
H            7.33495891177606        8.20135217979322        3.61180475645903
H            6.52860728467280        2.94017816369986        4.25035458001626
H            6.82985008874060        1.88369380134533        6.46860590909310
H            5.84932361030045        0.67886796205132        8.22855828140712
H            4.10279755074300        0.69260378601071        8.48257291854645
H            5.07791647489671        2.08515227690736        8.97805742116359
H            2.69198508494628        2.07493110980724        7.15382243474729
H            2.35437451009508        3.12920784930074        4.94003175413404
H            1.19907913972347        6.11298571468802        4.22856304297452
H            1.48045109681622        8.21468999630630        5.46170179658070
H            3.71800196941303        9.20663907376396        5.71477217538462
H            5.66742673137188        8.11323118623501        4.72762101916886
H            1.24431153233490        0.74592196249806        2.18390103543925
H            1.60089628790824        3.69458319433712        2.73786873790091
H           -0.54104210104043        0.61798689578840        3.16854343318697
H           -2.88017275146627        0.70048500966056        3.86995755023354
H           -5.95154756010871        3.87113673450783        4.84074732347464
H           -4.88201925971295        4.60161104933845        3.62823231873018
H           -4.40611943319710        4.57406157358077        5.35698042287404
H           -2.70511401481149        4.96397886035519        3.97553539497502
H           -0.38427820158840        4.88667941482030        3.25553572979265
