62
 energy: -12.409399498985 gnorm: 0.000931407890 xtb: 6.6.1 (8d0f1dd)
C            1.05403639725979        0.51703686352749        0.69058835427248
C            2.11330876644693       -0.15577104477768        1.54897061932431
C            3.17394831871893        0.79651487787080        2.00277454780331
C            4.34610747223677        1.10018867698853        1.31784650781152
C            4.78841848727486        0.50324585433903        0.03441717911325
C            5.04470505043458        2.07859886207224        2.08163079032304
C            6.24369059208263        2.74642261777519        1.83549316706479
C            6.61819187850221        3.74667586670110        2.70713349972341
C            7.65755644981620        4.76328605527911        2.66331282546616
C            8.71746393381835        4.95847263146681        1.78696688463344
C            9.53616036004683        6.05222967656693        1.97294074392804
C            9.30292973989460        6.95069597346120        3.00933016090394
C            8.25141622462866        6.77490672904276        3.88458295780106
C            7.41617911984068        5.66971474145292        3.72782526801443
C            6.23025908983009        5.20644677082784        4.44378778740636
N            5.86468375812924        4.07108886131214        3.81159873205271
B            4.74389990220778        3.19645472036981        4.35389357021942
C            5.35535630606708        2.22506395607659        5.47529475146135
C            6.31429294354648        1.30959954052233        5.11106091283786
C            6.85747311112843        0.46759150829294        6.05184217476760
C            6.45132005184761        0.52540737759595        7.38774263951948
O            7.05198077503070       -0.36442733277537        8.28603309680374
C            6.61545488430278       -0.24093136586045        9.61792476037306
C            5.47577780312445        1.46470551211768        7.73463837510910
C            4.93951229843517        2.30113161339904        6.78319380649648
O            3.69990385184281        4.06586084816307        4.96669155045525
C            4.10114879325328        5.17250341009997        5.64299698834705
C            3.21979710130994        5.77073181849255        6.56379788639152
C            3.59656015940937        6.86295000792757        7.29159768719046
C            4.86747959335713        7.41369442163335        7.12934378054265
C            5.74599506080446        6.87489030394845        6.22679619523621
C            5.39573634345203        5.75752248360191        5.45867698855987
N            4.24043435080698        2.31634939019680        3.19687996030692
C            3.12073517857212        1.58486894486063        3.18238532783813
C            2.09714513296828        1.57056792713945        4.24277451053264
H            0.27981078812018       -0.18203292233338        0.36747213596156
H            1.49515134433303        0.95761044333642       -0.20502756231925
H            0.56367746451139        1.32531820963951        1.23554520001868
H            2.58352221086032       -0.98024589643299        0.99882818494526
H            1.65362968226236       -0.62184078709397        2.42945008171085
H            5.02132460171486       -0.55504456260631        0.15852227274741
H            5.68177867280022        0.99958505262626       -0.34570381080220
H            4.01064477926453        0.59178153976159       -0.72506467315540
H            6.81676896960813        2.54842242292119        0.94977435643198
H            8.88465809128686        4.26278412240824        0.98372239137628
H           10.36555291476501        6.21535626105101        1.30438030123983
H            9.95364030893830        7.80169119444581        3.12723594177621
H            8.07564754142443        7.48487393456904        4.67044920922764
H            6.63051524309763        1.26389183399024        4.08426865761384
H            7.60781970967953       -0.25216321059228        5.77722278184558
H            7.15145678809060       -0.96897097054675       10.22788470988342
H            5.54643180192315       -0.44757593662748        9.67959650444949
H            6.83475230960751        0.76075422554214        9.98939902389614
H            5.13958294072025        1.53803170591577        8.75267567161316
H            4.19194711354796        3.02746844951325        7.04842653308984
H            2.24356530109534        5.33683129937649        6.68710406151385
H            2.91065925075266        7.30147483878997        7.99769762189640
H            5.15561030043307        8.27141751940069        7.71467140999195
H            6.72340961161973        7.30490343361414        6.11635601371736
H            2.22049045863335        2.43314824425796        4.89785052687018
H            2.18069701498573        0.66951378634082        4.85077595280173
H            1.09314550549335        1.61007666902736        3.81991151302726
