27
 energy: -5.708795553261 gnorm: 0.000587784658 xtb: 6.6.1 (8d0f1dd)
Br          -1.40060418190966       -0.39402448484124       -1.10173025559112
C            0.40399238200777       -0.22123374003189       -0.57601177897112
C            0.79052812382810        0.83778314833080        0.21801176985471
C            2.10872881443211        0.96724086310186        0.60417602850533
C            3.06204565209891        0.03459882588216        0.19739080578904
C            4.45185440045498        0.15425884024224        0.59133494024888
N            5.38088500438323       -0.67480028011817        0.18964218713366
C            6.60468758831108       -0.34116364481493        0.69972164757511
S            8.21459557648539       -1.05309566007540        0.52883365246532
C            8.92824845380118        0.16699040742775        1.57305469747753
C           10.25266399502714        0.31279051861639        1.95824154524984
C           10.60139338047434        1.35055359619442        2.79034156909698
C            9.64048947428863        2.25069540386290        3.24619793027427
C            8.32635677477027        2.12037888669164        2.87242362046813
C            7.95905107267304        1.06892629093937        2.02577704456669
C            6.64256555952195        0.76382406364816        1.51613202659359
S            5.04394085847030        1.43241771680012        1.65682578780066
C            2.65312019456938       -1.02830744825025       -0.60551749835989
C            1.33308523282581       -1.15347062518251       -0.98727014105908
H            0.05159325574770        1.55785642490756        0.52946380377474
H            2.41588941051054        1.79125781777444        1.22353165312689
H           10.98793321685548       -0.38702485611186        1.60084056899766
H           11.62842969822941        1.47014577406284        3.09338460604410
H            9.93317170400283        3.05711461170877        3.89810371251371
H            7.57573497932065        2.80952151329126        3.21690248332925
H            3.38642676456738       -1.74977739592256       -0.92106647321671
H            1.01435261425204       -1.97437656813352       -1.60859593368918
