49
 energy: -10.709048381521 gnorm: 0.000956483530 xtb: 6.6.1 (8d0f1dd)
C            1.40542635815663        0.20364247971825        0.57523124896923
C            0.52907989372420        0.40594817303773       -0.43840499359630
C           -0.88016689843651        0.59775051709588       -0.28974352193883
C           -1.72370282298255        1.06215174679194       -1.29653104264663
N           -2.99746746953380        1.14009280838835       -0.83376037817412
C           -3.03111910278292        0.71079180492803        0.48948259332035
C           -4.09457458582915        0.57619907081991        1.38785712139037
C           -3.84416183338059        0.06721429282769        2.63122032721917
C           -2.54569657235177       -0.33546544900584        3.01846679008314
O           -2.29052037407119       -0.87501000058346        4.29375945399403
C           -3.20648665416139       -1.78443657171021        4.84343685784241
C           -3.27797657249304       -1.92119539626773        6.23028694821465
C           -4.15312188439690       -2.81241576724139        6.80558141125457
C           -4.97143532024922       -3.59166261425691        6.01091779899839
C           -4.90671744894023       -3.47757455117060        4.63562675434011
C           -4.03357380269061       -2.58707355204485        4.05601947412921
C           -1.48971148706210       -0.18247534213434        2.13188232648990
C           -1.72097982878789        0.35046711990628        0.86151235530065
C            2.78673630348681       -0.02642108094635        0.38288401896711
N            3.43731861216026       -0.15670139658696       -0.82077898101285
C            4.80192364937997       -0.41437150419960       -0.61133153188873
C            5.90912777009118       -0.64716853988970       -1.41477474158408
C            7.14401379984787       -0.88199998361249       -0.80630624896500
C            7.30620122297084       -0.89221983147723        0.56873343999715
C            6.20440814600176       -0.66351055850994        1.42150405730982
C            6.16346276723100       -0.64230938806494        2.83244019051997
C            4.97052612894325       -0.40839493143187        3.49790548623788
C            3.76839543707274       -0.18718899369802        2.82668664769988
C            3.76461469386702       -0.19682754728694        1.43270498288325
C            4.98342204318984       -0.43197280712089        0.77910406123157
H            1.05577034122591        0.25081668894517        1.58757606015032
H            0.91765666667351        0.44873584363612       -1.44002013294987
H           -1.41416451833151        1.33384447081650       -2.29205498974109
H           -3.82002045068532        1.46465188138784       -1.34561041493614
H           -5.08530097288069        0.86822307995600        1.08863513065295
H           -4.64148244032353       -0.03141042245328        3.34612276118474
H           -2.63332728777707       -1.31084023525463        6.83741632808715
H           -4.19909524019210       -2.90436841646464        7.87845894956131
H           -5.65555450063533       -4.29096891337510        6.46282943400706
H           -5.53891089409747       -4.09144851130952        4.01496830538747
H           -3.96403644747054       -2.51229036606171        2.98562150870589
H           -0.51840422107493       -0.52107102617563        2.43089072460346
H            3.01788462356402       -0.11851684338398       -1.74925109259197
H            5.80241238478055       -0.64558354493415       -2.48455084776781
H            8.00204897416866       -1.06393896090530       -1.43211861427483
H            8.27198856099963       -1.07884750899591        1.00404922670785
H            7.07182375143610       -0.81277806473231        3.38276388154791
H            4.97009205822328       -0.39805265152867        4.57531497516940
H            2.85394544445093       -0.01016870544372        3.36412589990600
