70
 energy: -14.575011002171 gnorm: 0.000769289911 xtb: 6.6.1 (8d0f1dd)
C            0.65077997990955       -2.02924638278537       -0.21211616084962
C            1.46361874408194       -0.86083390285923       -0.74605889780284
C            2.71400729513434       -1.30046265668238       -1.43945397995569
C            3.95006414826844       -1.51642386022454       -0.83838843918616
C            4.27068556496931       -1.32001687734990        0.59615577363747
C            4.84194074639534       -1.97413663764843       -1.85060031622471
C            6.17412786044150       -2.38093913567410       -1.78161828277366
C            6.74322220867965       -2.92647062382889       -2.91345518737579
C            7.97367631245811       -3.66871687569394       -3.13993556155000
C            9.06767705963085       -3.90861088574875       -2.31809328288255
C           10.09268126033186       -4.69824422231372       -2.79476143684067
C           10.03218630561715       -5.25287527839325       -4.06918306440928
C            8.95043971181479       -5.02978937025691       -4.89555735889719
C            7.90444847922177       -4.22677800140318       -4.44245197524860
C            6.63154274273000       -3.81909763077836       -5.03197836915674
N            6.05127937679077       -3.03464482053854       -4.09833171772074
B            4.76087777880914       -2.27670589312794       -4.37696277080919
C            5.14187177182927       -0.86434123129701       -5.04277475100303
C            5.08745692502588        0.31125774978609       -4.27865711454168
C            5.43973676207015        1.50620432981451       -4.81497517029236
C            5.87599496423051        1.59001061063804       -6.16635356284025
C            6.25010811779151        2.79806251112297       -6.75040875895956
C            6.67897547079368        2.85811749036968       -8.07500398869450
C            7.06599657686843        4.08275758294374       -8.68637311436410
C            7.48130215548326        4.11178998177949       -9.97814808948988
C            7.53760830837509        2.92865923834121      -10.74095607720496
C            7.17738452069745        1.73830506650861      -10.19778685641318
C            6.73580747276503        1.65949662619980       -8.84815583115871
C            6.36113207016613        0.45130557001452       -8.26457427566057
C            5.93316791526171        0.39298780629945       -6.94105178270305
C            5.55262278903997       -0.83070218880799       -6.32916947417685
O            3.92638499620467       -3.06288611320899       -5.32877624286293
C            4.53173968728510       -3.81494184196811       -6.28243090672389
C            3.78240441668020       -4.24462007216974       -7.39407825806259
C            4.36311200255134       -4.96343847453734       -8.39941361535294
C            5.71715949710712       -5.29150452541167       -8.33943934317647
C            6.47540753428104       -4.91105715031777       -7.26381056982851
C            5.91516012397441       -4.17917927927223       -6.20938521296501
N            4.08315537915926       -2.00696668645764       -3.02094509278867
C            2.81641141443688       -1.62720954012094       -2.81733535946691
C            1.78148108866517       -1.50917330252668       -3.86028129404231
H           -0.26303008624714       -1.70088459630397        0.28798413588058
H            1.22789428864147       -2.61487095508106        0.50552624586921
H            0.36191879392370       -2.70679553567355       -1.01747179315132
H            1.72775628256273       -0.17422730402421        0.06764491345347
H            0.86199486901917       -0.26306043699379       -1.44208339083730
H            4.12189666265534       -0.27997400243736        0.88906097771491
H            5.30769699213622       -1.57949535389521        0.81013922689267
H            3.63504289424258       -1.94401624833922        1.22540037357305
H            6.70977268689486       -2.36906223751650       -0.85145892966198
H            9.10097206684452       -3.48287145482904       -1.33072560514426
H           10.94901119878501       -4.89260296560253       -2.16994606678551
H           10.84406783518047       -5.87161302920571       -4.41508017753031
H            8.91376056779869       -5.47609936828496       -5.87122228527056
H            4.75950255634180        0.24486113142131       -3.25727960969813
H            5.39526052268945        2.40428897131398       -4.22366016216189
H            6.20823058838099        3.70052529468259       -6.16796658255615
H            7.02474843995393        4.98863012727945       -8.10655293540733
H            7.77205885869631        5.04674262301130      -10.42868585538460
H            7.87075343145620        2.97396089974644      -11.76487371557586
H            7.22169361655297        0.83609984109182      -10.78324823289897
H            6.40430347102453       -0.45250079040035       -8.84489528531083
H            5.59704369410463       -1.73949697880818       -6.89796887667168
H            2.74122229790370       -3.97908404921767       -7.43684874801494
H            3.77433109459447       -5.27684124672088       -9.24592057449575
H            6.16611711493242       -5.85307944730253       -9.14224756834499
H            7.51767163540583       -5.16584449742851       -7.23331618405688
H            2.12816801464607       -1.96163618187408       -4.78949782460507
H            1.54793696047051       -0.46342857900415       -4.06084379195314
H            0.86410511436850       -2.01644473203351       -3.56168590703856
