57
 energy: -11.669471198137 gnorm: 0.000802126382 xtb: 6.6.1 (8d0f1dd)
C            1.15041424954414        0.98022687275195        0.31068927173839
C            2.23990300562819        0.65565352104483        1.32007667248721
C            3.33502395022459        1.67467690509318        1.33079595299160
C            4.47682082501983        1.65954330221977        0.53598577243145
C            4.85088403926103        0.60689612628891       -0.43925087507570
C            5.22493892863408        2.83239087333735        0.84231015961221
C            6.42504695115083        3.31447571304593        0.32079603926070
C            6.85621237501188        4.55742144455952        0.73291173687466
C            7.91281023133745        5.44441386915846        0.27157281813967
C            8.93659912917929        5.25628947774210       -0.64818421736436
C            9.78422927611402        6.30976657086013       -0.91843733924866
C            9.61522039785870        7.54069097717745       -0.29278505014115
C            8.59894199848864        7.74693735567337        0.61665291949905
C            7.73458422815273        6.69521259746254        0.91723723415665
C            6.57224716577275        6.57963787420792        1.79437672230214
N            6.15748491374874        5.30290200704992        1.65401821982075
B            5.04418826762048        4.74015418429095        2.52544203808236
C            5.67986551294624        4.24953304880508        3.91315763519155
C            6.57134286714237        3.21217516726252        3.92923363801453
C            7.09261039452778        2.80279214642686        5.13422178305704
N            6.79230538004317        3.34675503903365        6.30157024076650
C            5.93192598781734        4.35013128443804        6.25981764693613
C            5.35578037901558        4.83162531277051        5.10731240944485
O            4.04436721893341        5.81266310066479        2.79175604050337
C            4.49771261881782        7.07739209354368        2.98669728877520
C            3.67005480123368        8.01060480209880        3.63973814013523
C            4.10056796008524        9.28294578100303        3.88544747947258
C            5.37465053779355        9.68519277617338        3.48591685166956
C            6.20198398491098        8.81372542182271        2.82816942849068
C            5.79525015897101        7.50228464742031        2.55262351148913
N            4.47659174084903        3.50171246823031        1.81110467992630
C            3.34784579179678        2.85438757536465        2.12052072308756
C            2.37799926955511        3.27489731141849        3.14792654901571
H            0.35379687926817        0.23312606416108        0.31059952128303
H            1.55531625470991        1.03207984294902       -0.70138227957721
H            0.69456214874075        1.94897932074968        0.52200764051579
H            2.67168780248572       -0.33146602397368        1.11412960452818
H            1.81557530840758        0.57904975793830        2.32887067395248
H            5.06878116992219       -0.33306202015895        0.06945063694207
H            5.73591753742040        0.89061943001763       -1.00927337114751
H            4.04213261389691        0.42851480949929       -1.14891601003694
H            6.95611301560283        2.77507447342835       -0.44020068794262
H            9.05399672257627        4.30400406916218       -1.13439566629383
H           10.58626113940370        6.17887862762445       -1.62623219229571
H           10.28882391037675        8.34889949533067       -0.52634217354207
H            8.47244600406224        8.70698668815251        1.08012461931490
H            6.84858048933606        2.73347373207040        3.00693452475427
H            7.79504880825392        1.98346983427317        5.15425827305038
H            5.68045247633796        4.80526625097540        7.20570435906549
H            4.66106343267905        5.65247143829621        5.12754134510177
H            2.69103274262344        7.69094726516350        3.94915961716088
H            3.45494809853113        9.98095866944288        4.39270632228479
H            5.70620707412392       10.68978519826625        3.69116566965491
H            7.18250669352002        9.13411245603815        2.53088979593332
H            2.52573277032280        4.32647535639089        3.39648036395084
H            2.50203542532844        2.69107657217541        4.06084051455495
H            1.35314694488385        3.15190104358437        2.79599677724581
