33
 energy: -5.870904663920 gnorm: 0.000611582756 xtb: 6.6.1 (8d0f1dd)
C            1.36183832549895       -0.19094943871695       -0.73613175244462
C            2.21012691521317        0.48001568168112        0.33145680693707
C            3.17091144864424        1.47277918614275       -0.23960424788401
C            4.46351732548335        1.19519119823139       -0.69879201745867
C            5.14999446088861       -0.11659188601748       -0.63940925650534
C            5.00015943470026        2.40712901520668       -1.21800038842690
C            6.22109552884298        2.70472808457426       -1.79805675697356
C            6.43796325684116        4.00250561795859       -2.22628198403782
C            7.55639016046514        4.60751439094734       -2.85137641837179
C            7.25143709532962        5.94339207480003       -3.07605563557541
I            8.52857982503435        7.32496758973030       -3.97200200918220
C            5.95306929956507        6.20049248557796       -2.60372729782405
I            4.94737515131766        8.01893685646125       -2.66283554422060
N            5.49342660955146        5.03596668139593       -2.10646799889849
B            4.11049761001428        4.81880069791583       -1.48216789150698
F            3.12963700841312        5.08784588949079       -2.43029641207429
F            3.97798502629013        5.62917373804311       -0.36005081169962
N            3.98712047010406        3.35653514307767       -1.05021768338042
C            2.89037405658838        2.83881377505270       -0.47585665269941
C            1.65869215790888        3.59318200376509       -0.18684614671425
H            0.66254866050374       -0.91433265049009       -0.31229213192393
H            1.98532355962071       -0.71836263124485       -1.45936244847942
H            0.77968767391268        0.54410448903284       -1.29369151931142
H            2.76925619416055       -0.26973851193864        0.90362198189700
H            1.57060590027029        0.98482566787098        1.06522080311511
H            5.33293077393580       -0.41229812178418        0.39414320718012
H            6.11134157594880       -0.08268778819213       -1.15201307354104
H            4.54848392722953       -0.89316958184839       -1.11273624048108
H            6.97917605294317        1.95436624635676       -1.91754928231807
H            8.48123988580284        4.11859323832929       -3.10880077290223
H            1.79534219738165        4.64255715121284       -0.45254137194319
H            1.40633825444384        3.54256123276328        0.87241699546114
H            0.81864417715042        3.20624247461653       -0.76377604781081
