35
 energy: -6.725350442466 gnorm: 0.000951681587 xtb: 6.6.1 (8d0f1dd)
C            1.02451188469318        0.42799938319476        0.04540577105048
C            2.52814540465448        0.35712569790543        0.25938925369639
C            3.28880610299943        1.25303893637328       -0.65933173080125
C            4.55549991397890        1.08955059886303       -1.11506712924217
C            5.44325242622833       -0.06547294670085       -0.84565684793028
C            4.87939681044569        2.22237301141028       -1.96676470047465
C            6.01660576282643        2.49711474489946       -2.67529029111432
C            6.13817606897517        3.67596806303348       -3.46044215653905
C            7.31466999532146        3.94497733465434       -4.18239213792326
C            7.41048817560698        5.09229529016744       -4.93545618393364
C            6.31601264891435        6.02041840694458       -4.99122793948852
C            5.16032982434015        5.76337429696604       -4.28674093759136
C            5.07678747918927        4.60652211450716       -3.53269313043867
B            3.80761267004035        4.29837788489188       -2.73916252634067
O            2.67270376530214        5.11781300150830       -2.69909103292054
N            3.78914414806268        3.06859757862646       -1.97707455212518
C            2.78094281942788        2.52542880742659       -1.17005739926458
O            1.70145665723803        3.03882092247035       -0.95346439136514
O            6.65460096576826        7.07908283673527       -5.80553307128710
C            7.97459618120071        6.79480634714955       -6.24810156690147
O            8.44606486010852        5.56406502732547       -5.71570246032844
H            0.47621333401030       -0.21282999424773        0.73822801403196
H            0.76059926917262        0.12876958710256       -0.96996934961626
H            0.66513368009643        1.45071680667815        0.17576145079816
H            2.87786485134750       -0.67381981766212        0.12801371218712
H            2.77723570623007        0.62588436856667        1.29321019028112
H            5.28752682744349       -0.45399660182397        0.16110372064069
H            6.49237267763817        0.21866111271610       -0.92823201222486
H            5.25449003805762       -0.87207232395780       -1.55482523074023
H            6.83874384830177        1.80691450512519       -2.64374005234656
H            8.14295291096727        3.26261691230049       -4.15228250216189
H            4.33585993330183        6.45115644934194       -4.32086780861568
H            2.12189971093974        4.56944677652699       -2.09424531204318
H            8.64160150079054        7.60368028597608       -5.92028296316786
H            7.97756114638022        6.73436459500495       -7.34488669575919
