32
 energy: -6.159222427085 gnorm: 0.000846956717 xtb: 6.6.1 (8d0f1dd)
C            1.02933453626057        0.30396826096846        0.64132054529260
C            2.50812593720490       -0.03621735016872        0.54936331253047
C            3.39204988156204        1.10545947684599        0.92488898697544
C            4.63473709977335        1.37349261347972        0.46104140811327
C            5.36341844973230        0.61270362953923       -0.58105366493479
C            5.12004989785246        2.57494674128280        1.13062478615833
C            6.29835178280659        3.24767465657582        0.98545541590729
C            6.58712009661353        4.41886143910802        1.74954226857560
C            7.79901932217080        5.11320054927853        1.59747352458715
C            8.05884028851585        6.23662430124355        2.33851477172515
C            7.12525232643366        6.70927380106818        3.25502436666195
C            5.93444472804062        6.04945901528059        3.42321671076754
C            5.66383401279300        4.91540801895508        2.68123921466676
B            4.33637202614709        4.15756637020652        2.84365144251063
O            3.31431964530526        4.52097308270380        3.72248699267896
N            4.14601300027420        2.98614582041963        2.01752369685541
C            3.05467917498385        2.10588375226644        1.94200768365059
O            2.04040268066150        2.18506365810728        2.60318066170781
H            0.39172208061521       -0.54446545838464        0.38557713305401
H            0.77587054942156        1.12801505229323       -0.02739656773522
H            0.77084758854870        0.62703702004081        1.65167457876026
H            2.75575981377949       -0.36370004055393       -0.46748979081899
H            2.74316390859572       -0.88739822150319        1.20003150980695
H            5.18559466619250       -0.45810162031567       -0.47855662460716
H            6.43868050563894        0.77541270230261       -0.50710682903164
H            5.04322121976770        0.91727012248886       -1.57779390184217
H            7.02637202199733        2.89526571457159        0.27906977026882
H            8.52373737805017        4.75008915674036        0.88944255989836
H            8.99244836679027        6.75935983967742        2.21136534452839
H            7.33777453963409        7.59395694642333        3.83227833471109
H            5.19784386975544        6.39807031761694        4.12648291821306
H            2.68618860408155        3.79240063144141        3.50914944036451
