54
 energy: -11.738087449525 gnorm: 0.000588808190 xtb: 6.6.1 (8d0f1dd)
C            1.19777030105115        0.09801234521068        0.11023586246522
C            0.39689130434895        1.18194892987387        0.02877437312141
C           -1.03385226451044        1.17375499081791        0.19527417138591
C           -1.87996617403004        2.18854220909426       -0.23481699575878
N           -3.17007395810681        1.87689577818974        0.07015567309824
C           -3.19754786275193        0.65377208877574        0.72849416344967
C           -4.25984460854930       -0.07430708194234        1.27306778063913
C           -3.98462408552982       -1.24803024771521        1.92377536968147
C           -2.66799311328868       -1.70945768954207        2.05140461136552
C           -1.61535049835651       -1.00882855603076        1.52131045467643
C           -1.87178126418482        0.18744062807997        0.83260657804533
C            2.63406951180891        0.11368260057818       -0.01483355333041
C            3.37442834992039        1.32296990982117       -0.04992091427442
C            4.72240560575807        1.30454369356580       -0.14467402832984
N            5.42445326979514        0.11162937879033       -0.21304350313387
C            6.80747176038345        0.10388757724866       -0.30108328527761
C            7.50107455558123       -1.05362694686036       -0.37453394185043
C            6.82924179602282       -2.30276508022220       -0.36563952893980
C            7.53896963355574       -3.55455485019630       -0.45791599779423
C            8.87887423785924       -3.69702681226197       -0.37238570371813
C            9.59391277907771       -4.94114442130017       -0.49717857644715
C           10.89645003885730       -5.14469033148414       -0.05817820367420
N           11.27858896029669       -6.42566474421162       -0.31795533687695
C           10.23654834704557       -7.08929852148075       -0.95346868869096
C           10.14285797116234       -8.39365450086708       -1.44841356716445
C            8.99133062486210       -8.77090417613061       -2.08749857465647
C            7.93045081684084       -7.87072982163024       -2.25185143470364
C            8.00467130869919       -6.58960780415112       -1.76892088913878
C            9.16546317916675       -6.18385579730040       -1.09140055528985
C            5.44959259565818       -2.29476125159366       -0.27815983056412
C            4.73125447846668       -1.09497109183927       -0.19251685116938
C            3.33452792326775       -1.07609736964557       -0.08503580934598
H            0.73925261402737       -0.86435786159845        0.24000024285345
H            0.83706210932438        2.13089647723733       -0.21855423646760
H           -1.56884975903454        3.08251359553444       -0.74939100376200
H           -3.99974049713991        2.44247465471243       -0.11954057790452
H           -5.26477597536432        0.29747817206317        1.18069128427601
H           -4.79045046653586       -1.82076287069778        2.35278816042323
H           -2.48085850557725       -2.62752841704949        2.58386287635429
H           -0.60678964581845       -1.35158637203306        1.65992339767600
H            2.85957589782995        2.26411736282939        0.02046948039853
H            5.28366005012347        2.22186717676497       -0.16386421101410
H            7.31740174501265        1.05081328919817       -0.31362189619446
H            8.57231144356904       -1.02653110789855       -0.46134921535765
H            6.93877818951807       -4.43919284840623       -0.56025641570290
H            9.47589353596598       -2.83105592321616       -0.15077878539293
H           11.51005303575589       -4.40815335316258        0.43353651473412
H           12.18441791011975       -6.85049123114418       -0.11008902510260
H           10.96965781188688       -9.07089456155001       -1.32840220378592
H            8.90277829697764       -9.77108721234072       -2.47894769589891
H            7.04430644377362       -8.19078925639429       -2.77500712314700
H            7.20098728135932       -5.89637623037711       -1.93464377764479
H            4.91419832690355       -3.22701994130873       -0.26911373891197
H            2.79904463715576       -2.00801657480490       -0.06000531823429
