29
 energy: -5.430570708238 gnorm: 0.000884886409 xtb: 6.6.1 (8d0f1dd)
C            1.02247018454737       -0.57142566701052        0.29143605539428
C            2.51030295289296       -0.55837892889933       -0.02103367816983
C            3.34222815080769       -1.08605009823042        1.09937584632606
C            4.60043679018046       -0.71643912368886        1.43861038026802
C            5.40371077240186        0.35024603230910        0.79667518028227
C            5.01119943318285       -1.51130371958389        2.58577864715100
C            6.16737200054462       -1.48271362612123        3.30184725487623
C            6.35821199041462       -2.37156422446977        4.41537655710254
C            7.47589102199839       -2.43573023246572        5.20107624271116
S            7.29382518340711       -3.63900613931012        6.42114563302862
C            5.71142290574788       -4.06858987391249        5.88677095813460
C            5.34711840858469       -3.31950360009995        4.82193581191939
B            4.04403643345360       -3.32828202013895        3.98981335882982
O            2.95870148540637       -4.16838820927261        4.22481457142710
N            3.96984638662898       -2.38385558072691        2.89262344780738
C            2.92081932390399       -2.16682903868349        1.99140624480559
O            1.86854937318708       -2.77445122622991        1.97340249863644
H            0.41971188650630       -0.21019688387171       -0.54376957087560
H            0.80042247243310        0.05108683842529        1.15922444396712
H            0.68968730442758       -1.58231101694490        0.53444065190530
H            2.83446214852397        0.46122202593154       -0.26176440350081
H            2.71573420415534       -1.15450817932580       -0.91856636974518
H            5.24782925950111        0.36270099469371       -0.28247811675848
H            6.46876076720099        0.19945236582751        0.97321901775277
H            5.13103038729881        1.32983371696442        1.19065115510039
H            6.94780672898153       -0.79329293639969        3.04122368924081
H            8.34934081039581       -1.82627346220920        5.07854914081850
H            5.09823331206547       -4.82682264358941        6.33316803540599
H            2.37465792121929       -3.85524554296644        3.49642731615855
