114
 energy: -24.292994950384 gnorm: 0.000765489270 xtb: 6.6.1 (8d0f1dd)
C            4.96202069975326       -0.99186888326655       -2.75655085632959
C            5.30723738841995        0.03512780740110       -1.68734359776577
C            4.68593468896288       -0.27337397000452       -0.36080929682027
C            3.46055016083516        0.11544307233515        0.05193708265804
C            2.49447869152713        0.94223913345756       -0.70873041124378
C            3.23887000948942       -0.43950573200298        1.44669541091411
C            2.98937114928326        0.63328974464705        2.54677767988315
C            1.61363945937118        1.25638385342182        2.42622029930096
C            1.46489598363623        2.56730280262385        1.99404116747707
C            0.21489893054775        3.13140903960566        1.86562863106368
C           -0.93754981732589        2.40444569531122        2.17434913903546
C           -2.27950005901716        3.01227640512828        2.03282515504130
C           -2.56950356939752        3.87468846200524        0.96955562594056
C           -3.81470511980889        4.43853576535418        0.83520022344839
C           -4.83060912057642        4.18203692485639        1.76044672705544
C           -6.13535830573899        4.79739066613954        1.56963641041268
N           -6.46078312804985        5.43924137946166        0.45151180370650
C           -7.72574126408232        5.88411696479499        0.61816260280967
C           -8.53952676267519        6.63347794731309       -0.30588618286376
C           -8.05402705796632        6.98009148711584       -1.56963453990050
C           -8.83322344968358        7.68904337867463       -2.44874471200256
C          -10.11771118658257        8.06832698176781       -2.08241815335805
C          -10.61455995856351        7.73882719134825       -0.84350408559977
C           -9.84794301896831        7.01413003465709        0.08313343120114
C          -10.35185531730362        6.65039776877921        1.41067778688783
C          -11.63647611377238        7.01296808970526        1.84542428812512
C          -12.09503947090662        6.66941464192784        3.09419341649264
C          -11.28742554528765        5.94841278665403        3.96336177046763
C          -10.02767401455719        5.57584640890865        3.57440745933004
C           -9.53392625662978        5.90981712313904        2.30643621293344
C           -8.21560807059079        5.52799707456969        1.87949104360083
N           -7.19590032386659        4.82136369871807        2.50083057516178
C           -7.21891132879833        4.31005016969799        3.85260607931732
C           -7.77146222955131        3.06782751146287        4.13220286595346
C           -7.83139357931422        2.60585296092713        5.42898086537672
C           -7.34547805463407        3.36344661309402        6.48939728481687
C           -7.44473748639838        2.81783039447080        7.92437370254196
C           -8.92501200802256        2.57329033898422        8.27659918474460
C           -6.66345612407636        1.49358619519504        8.02211383329639
C           -6.85862387296376        3.80361011172902        8.95541097318654
C           -6.78733468853750        4.60440804226219        6.19771422833093
C           -6.72439506433576        5.07100112157387        4.90235872405539
C           -4.54052370785620        3.32112826076410        2.82386696602024
C           -3.29906214886172        2.74724233021231        2.95449702737470
C           -0.77875052362895        1.08741984333922        2.61347679282189
C            0.47433849702046        0.52573875173948        2.72957472257768
C            3.24558640329357        0.03555747464972        3.90391262619415
C            2.86326191377127        0.47411515322316        5.15616546361297
C            2.08150555843535        1.69872636266763        5.45873658558943
C            3.32035597173985       -0.50175547624681        6.12392714227926
C            3.05368889054487       -0.47312571728801        7.59629095262215
C            1.66166956340696       -0.97696261676906        7.94776757322516
C            3.98016390681839       -1.50218155958817        5.44008222017078
C            4.60918562560723       -2.72002518722534        5.98189967886131
N            3.93261894661749       -1.15035044232875        4.10415923090398
B            4.67851699136181       -1.91659122659119        3.00103916481261
F            4.15561787507016       -3.21051649536800        2.88763114758318
F            6.04090590882531       -1.93417795903616        3.32834144338680
N            4.46035439918986       -1.16555949580064        1.67839075034187
C            5.29589124043111       -1.10986328272350        0.67524747222051
C            6.61894469467784       -1.75683796322559        0.60238168827465
H            5.42501281407692       -0.75729139460244       -3.72031188900932
H            3.88224570284382       -1.04961827781041       -2.91593942638085
H            5.29425187473802       -1.99178243735469       -2.46564857172327
H            4.99286709849711        1.03883848980284       -2.00428010907863
H            6.39644577395717        0.10463545605536       -1.56230815078247
H            2.79825390419687        1.99123864222043       -0.71448489044140
H            1.49674444863092        0.88383915525499       -0.26881536092901
H            2.41750741159427        0.60739987075271       -1.74525207779673
H            2.40686396502375       -1.15693062806836        1.43521811704500
H            3.73675867799964        1.42516585537859        2.39548655548917
H            2.34334896864243        3.14416967160704        1.75563483105444
H            0.11772538697770        4.15373531857238        1.53988468982260
H           -1.80541545695797        4.07782888412653        0.23782489733961
H           -4.02908549043644        5.09233354262278        0.00683886545115
H           -7.05641929444470        6.67798017693207       -1.84049989990004
H           -8.45022898922573        7.95045372070180       -3.42356304758558
H          -10.72914740970038        8.62505840837270       -2.77680638548939
H          -11.61327130052396        8.04555721673119       -0.58684434086681
H          -12.28219228304718        7.57388516539778        1.19288811502377
H          -13.08728907991871        6.96166200022179        3.40379794952708
H          -11.65182875485425        5.68264085271429        4.94395527264205
H           -9.40280973398901        5.01954676976712        4.24851652855204
H           -8.15845621273768        2.47782074528227        3.31856155787411
H           -8.26725343475892        1.64080142038537        5.62602866953758
H           -9.37627130181338        1.83705119225960        7.61010684189528
H           -9.49968886877160        3.49729576844178        8.19199813406024
H           -9.02920692996541        2.20403493828349        9.29870937294640
H           -7.07434426819520        0.73882611553191        7.35041329578290
H           -6.69935350566502        1.09107120957931        9.03616535110431
H           -5.61593010649663        1.64342740596960        7.75570078343879
H           -7.39161967314040        4.75582865909386        8.93754134323370
H           -5.80177046646882        3.99398575807684        8.76131822557421
H           -6.93931538960463        3.40118139451954        9.96711840526536
H           -6.39810577727732        5.21793923574054        6.99176221211878
H           -6.29665567158926        6.03511021368669        4.68491412624621
H           -5.30574520109786        3.10090315717990        3.54452985079575
H           -3.09284980924951        2.09636229498779        3.78767916003673
H           -1.65370689168877        0.50307683459272        2.84453468511474
H            0.58391571039657       -0.49085508816043        3.06892494394745
H            2.33392847624847        2.50427782578977        4.76621940428179
H            2.28036971708092        2.05859476857245        6.47003816350370
H            1.01003471200275        1.50598965375822        5.37467980958579
H            3.19848763682234        0.54995749358818        7.96850581179018
H            3.81724078866643       -1.07282422066626        8.11028388511873
H            0.89006018649353       -0.36713563645125        7.47064689490484
H            1.47526405503235       -0.96232771129249        9.02609345602169
H            1.51616442429354       -2.00363028779769        7.60142377507189
H            3.88003399572065       -3.33744065869756        6.51052763737670
H            5.41566178507867       -2.47145416742882        6.67489617710085
H            5.03239874547305       -3.31568958298494        5.17102943328935
H            6.69541495311319       -2.55123962704533        1.34591840296686
H            7.41513102963516       -1.03548931709629        0.79600307523337
H            6.78968325809677       -2.19988420518494       -0.38089305474285
