82
 energy: -15.664511211448 gnorm: 0.000759256217 xtb: 6.6.1 (8d0f1dd)
C            2.56575003156498       -1.90834015285770       -5.59033053111513
C            1.53546137984090       -0.82472355765924       -5.86259271273556
C            2.02304653358621        0.53830454809693       -5.48724952497755
C            1.95986168511146        1.12381562127256       -4.26600726627515
C            1.38307274581507        0.56506179655660       -3.01697681849340
C            2.61644450471126        2.40729119841458       -4.39679111097192
C            2.79483326663860        3.29122815540481       -3.33050693893615
C            3.46132277219285        4.50945533828984       -3.38015360216192
N            3.97951505934663        5.15547157447170       -4.48289557851205
C            4.49592730975227        6.37459194948274       -4.11279676970470
C            5.11121500062916        7.33109524744794       -4.95116356846783
C            5.24584647786303        7.22286624651952       -6.30749940875986
N            4.80115674128215        6.20398204118985       -7.06815197591832
C            5.02358832013926        6.46278065662537       -8.37102930329773
C            4.92676545215217        5.49214473083132       -9.34794168642694
C            4.45805474175547        4.18912852368684       -9.07380775046316
N            3.93257731774257        3.48116288975534       -8.03798488771670
C            3.64044113754719        2.20059343802329       -8.48396484551694
C            3.03227271734111        1.23453074371511       -7.68377818322488
C            2.72417487909881        1.47009776821220       -6.34467987513003
N            3.05418545927874        2.58664998708984       -5.65390654972945
C            4.02620795126696        2.10256806631508       -9.85639919687332
C            3.90206522228743        0.93562535621663      -10.75572763084353
C            4.53333819869952        3.34550479153177      -10.20447509303143
C            5.11394996994836        4.08888887518142      -11.32380200226273
O            5.33314744271298        3.66619378710580      -12.43328643723505
C            5.37785696427612        5.48785920400770      -10.79479405241353
C            5.49790354023419        7.88612221802475       -8.57878083162759
C            4.38790299970251        8.83123396755933       -9.07452180916435
C            3.81751213874547        8.49674725818296      -10.44182839133752
C            2.78318185047833        9.49931296327054      -10.86091447060556
O            1.83432245719030        9.71019856666292      -10.13753749417324
O            2.99380541663416       10.11954574112696      -12.05660290425442
C            1.95240685807899       11.00572083605581      -12.30883134105542
C            5.94576595094174        8.27124439807769       -7.15094732667151
C            7.46058305402871        8.23908161892828       -6.97490790471658
C            4.31775614844294        6.51314803178803       -2.71669520028115
C            4.75030536981072        7.66799182249001       -1.89270303898850
C            3.69244795176463        5.36095083187932       -2.24951822908117
C            3.35514136952375        5.06152695406685       -0.85901856222869
C            3.76609903703282        3.98024284456766       -0.17960272449325
C            4.68757777065292        2.96358550691107       -0.72252258332315
N            3.28809482219197        3.79663337248199        1.17960856681164
O            2.57320182149755        4.67777240939357        1.68176972080089
O            3.61191237742868        2.76306294556682        1.78484714993873
H            3.48407359736117       -1.72474031444957       -6.14962960524143
H            2.20230858946947       -2.89993199504338       -5.86630647151872
H            2.83486172106760       -1.93660566817175       -4.53359064347254
H            0.60490144560347       -1.03503271481447       -5.32217718715861
H            1.25019521557098       -0.82503458692605       -6.92112552114232
H            0.83977766082547       -0.36040949418881       -3.20520256540228
H            0.68636496330448        1.26962033771741       -2.56190459839290
H            2.16756801321933        0.34892054565352       -2.29120083574395
H            2.38791732235733        3.00010728685709       -2.38018362378847
H            3.95839580481111        4.78714233229023       -5.44007995982290
H            5.50037746091278        8.21738371868797       -4.48392391308152
H            3.72754257648993        3.83326401334290       -7.10344587798179
H            2.78501044132974        0.28609740702302       -8.12143808053193
H            4.42664136611736        0.07143043283101      -10.34813334804731
H            4.33087930497171        1.16199598122533      -11.73274372217610
H            2.85596760297722        0.66573291701191      -10.90094153589995
H            4.82793949345535        6.21596153065305      -11.39505775865092
H            6.44324412604603        5.72483221971506      -10.87072431611098
H            6.34942390460936        7.89571238435298       -9.27303523198355
H            4.76389484022926        9.86046187842540       -9.08522116795536
H            3.57090543112556        8.83026971954195       -8.34415876354154
H            3.35433081608874        7.50619992427564      -10.42595171144950
H            4.61136287389848        8.47150655071666      -11.19392728990890
H            2.12471358515276       11.49861774265927      -13.26808901745636
H            1.91440264959571       11.74679298238927      -11.50649015334146
H            1.01273795184056       10.44824843683429      -12.33596822488907
H            5.55175559562329        9.26479807233218       -6.88835355790109
H            7.84953225220183        7.25083582822407       -7.21968759077641
H            7.74677683590728        8.45924059790118       -5.94617390925324
H            7.95360371724531        8.96206728831849       -7.62550756114450
H            4.23685174408512        8.57895388682608       -2.20131579899508
H            5.82383482350409        7.83268076682282       -1.98778316443318
H            4.53231197383445        7.50220657691144       -0.83758132350854
H            2.74028401168434        5.76903486554182       -0.32773223269689
H            5.35952109791099        3.39286605536399       -1.46654455979949
H            4.13995661089065        2.14300238501227       -1.18530412638977
H            5.29544235998295        2.54134899350034        0.07877562422941
