89
 energy: -17.404861526674 gnorm: 0.000995569795 xtb: 6.6.1 (8d0f1dd)
C            4.52913288375494        3.43648587907232       -6.16912427425608
C            5.49192306867230        4.29231854439290       -5.36282237442519
C            4.86281932620597        4.84577998719751       -4.12419500022067
C            4.76139211500435        4.23761798080915       -2.91663465592689
C            5.26309210115025        2.89345947480378       -2.53420158495833
C            3.99089542582281        5.12964636221890       -2.07660648117744
C            3.65073012348253        4.83300234422749       -0.75490038613975
C            2.88434325211293        5.61879177564804        0.09512322116858
N            2.39624109308357        6.88832651313480       -0.13147133102028
C            1.79283397126105        7.36987005401303        1.00729946513236
C            1.21843321524946        8.64850008519426        1.19503498113566
C            1.07396636309318        9.60314075179505        0.22736856934242
N            1.41898522025938        9.47067576982699       -1.06792350560698
C            1.04564839129896       10.55630405410662       -1.76752103104027
C            1.35684647433930       10.73344246378215       -3.09865809076657
C            2.09050387825196        9.78726140908339       -3.84578664466120
N            2.66703660242624        8.56614267181317       -3.68290710165338
C            3.29280681930937        8.21319861459556       -4.86943711230965
C            3.99795587451961        7.02244399660952       -5.03721938218258
C            4.14570591208075        6.09744862976723       -4.00568145283641
N            3.63743216238495        6.23126750917771       -2.75714363959056
C            3.09158462478478        9.26543137542733       -5.81499933736485
C            3.59283331481945        9.34871875362320       -7.20351976031170
C            2.34674930703222       10.23491867177220       -5.16099844416066
C            1.76262999080388       11.56483516130481       -5.34444992269763
O            1.80932296724781       12.24079556557218       -6.34375203636963
C            1.09808132742544       11.90539540626908       -4.02167208745135
C            0.30647615018303       11.56046560410999       -0.91071911863013
C           -1.16090837921671       11.74134436200535       -1.32458370372216
C           -1.86867289850412       12.85074403769009       -0.56196571026762
C           -3.30991161443879       12.95192301623538       -0.96267331116150
O           -4.10853298140239       12.16111790005136       -0.50884649861030
O           -3.61678483538828       13.93470987937850       -1.85569984954555
C           -4.97581898299770       13.89078769930118       -2.14393203936436
C            0.45578830926095       10.95975337136157        0.50410142775516
C            1.31843212648111       11.81802986765299        1.42441204774809
C            1.86349347214227        6.36228390560608        1.99390206687126
C            1.32517931130655        6.45512922562181        3.37317014050089
C            2.51354158704430        5.26021391709088        1.43749356069727
C            2.78880089674640        4.00729421910483        2.11411555804540
C            2.72399343825010        2.75931490190188        1.58610579260555
C            2.12831586714889        2.40841698487538        0.29555610780181
C            1.09351566462491        3.15970211818931       -0.26336344782481
C            0.55741764391056        2.82812176696147       -1.48642417463171
C            1.02770450371488        1.72832256095706       -2.17378491418831
C            2.02991171566354        0.95414125371563       -1.62701597484660
C            2.56904894021893        1.28775838426089       -0.40614439775151
N            3.25053566436047        1.68365353038130        2.42498709917429
O            2.89361501024273        1.63865817034053        3.61213897254751
O            4.04387925211606        0.87166884102989        1.92535579122886
H            4.16619268372463        2.59282721015625       -5.58022809555617
H            4.99290992487819        3.03553648626969       -7.07227285020035
H            3.65462237817906        4.01353824387933       -6.47374270836757
H            5.87355788947362        5.11932532454887       -5.97305644936713
H            6.38136717132266        3.71356413386680       -5.08756987092243
H            5.71925136917239        2.91325654440084       -1.54440728423555
H            6.01629323513526        2.53337670125904       -3.23404973877682
H            4.44914834089710        2.16882160735535       -2.51717586393377
H            4.00267758951718        3.89815439001630       -0.36194759042781
H            2.53434481777335        7.42208813268776       -0.99628036735979
H            0.85656342100567        8.88402923793962        2.17931494041299
H            2.66733091902758        8.00231961393445       -2.83356570964027
H            4.44301981523241        6.82036340775892       -5.99278592468925
H            4.68282720111841        9.34642594637457       -7.22430385853585
H            3.24839534424544       10.26936684665083       -7.67715715963492
H            3.23594517662176        8.50796270872522       -7.79867447065302
H            0.02672586827847       12.05939733222132       -4.17714769161152
H            1.51798148317593       12.82865997892716       -3.61159608262638
H            0.82825827452431       12.52627537839999       -0.96526260134637
H           -1.69460336416572       10.79591648883029       -1.18035164260909
H           -1.22771897213223       11.94437742887314       -2.39765713803966
H           -1.37824614599527       13.81221684737372       -0.74024417691727
H           -1.81701690042196       12.67373936624411        0.51574146698878
H           -5.20996134221178       14.65513246182633       -2.88808090583949
H           -5.53793954541057       14.07539596194574       -1.22517721842135
H           -5.22450679292156       12.90009923378913       -2.53266269820450
H           -0.53867110470376       10.80380221255301        0.94839306199945
H            2.31327140461816       11.94916191302428        0.99935152772792
H            1.43829951445684       11.35610407112209        2.40464222664332
H            0.88475833693494       12.80800361991726        1.56861973506640
H            0.30511236158472        6.83979404455270        3.36699825817652
H            1.93606808184191        7.11919742316132        3.98497617548867
H            1.30446123100121        5.47767713311212        3.85552284991646
H            3.10230853735945        4.06983570425593        3.14361188025074
H            0.71696524068007        4.01275062139637        0.27272279532923
H           -0.23138121052051        3.42921071902251       -1.90789913906834
H            0.60598826221911        1.46919489757000       -3.13092768381054
H            2.38823707770717        0.08523581897350       -2.15402575488494
H            3.34312675947752        0.68033948385022        0.02841973386636
