39
 energy: -7.433373573592 gnorm: 0.000581519682 xtb: 6.6.1 (8d0f1dd)
C            1.04524684225472       -0.50248801306174        0.80276907961959
C            2.52414774386528       -0.55684520820534        0.45416489424613
C            3.38651524283736        0.10891249895771        1.47386342232679
C            4.54898885377452        0.78108300042734        1.26047199099064
C            5.18310216889254        1.04445131285401       -0.05216540639182
C            5.04185088586004        1.23300841370990        2.53621608681052
C            6.15712895079995        1.96218514382520        2.84636243230486
C            6.43268099260337        2.28062497993315        4.18991229804205
C            7.59124936922167        3.03890527777682        4.53201139345989
O            8.41737261218327        3.43823333340421        3.48798251297889
C            9.54368627335258        4.18595819627835        3.87746130879137
C            7.81700472836178        3.32673958520974        5.86926544332758
C            6.95544838011876        2.90133271915056        6.88271369496521
O            7.28496795070456        3.25055907375078        8.19026755526518
C            6.38177375392705        2.79738515742076        9.16765215766204
C            5.82689784538269        2.15876166180832        6.52726610261859
C            5.55828812426466        1.84774858629556        5.21192220759271
C            4.36219389560911        1.06611422331705        4.88433954581294
O            3.61082340278665        0.69221728486752        5.76515365918213
N            4.15712873654172        0.79114040700582        3.52274283396177
C            3.11785310290961        0.07648211781517        2.90579780105934
O            2.16313448572541       -0.47199622505194        3.42428492809681
H            0.42513358575806       -1.00677085096608        0.05964110407450
H            0.70104745116455        0.52950421076560        0.88352115879436
H            0.86039124136953       -0.97240015869248        1.77102835835804
H            2.69661403693826       -0.09178408866760       -0.52355511268864
H            2.85123636471104       -1.59842937757567        0.34977386525184
H            5.08121362644876        0.18583689038659       -0.71566639724065
H            6.24786323416067        1.24759530494664        0.05980712658227
H            4.72476007874222        1.90610092408591       -0.53758436077838
H            6.82781085982346        2.30052963407636        2.07928549211832
H           10.11513923339448        4.43825106822995        2.98344937629923
H           10.17092367620834        3.59138630003396        4.54293639104082
H            9.22470671107160        5.10709706231951        4.36690147442875
H            8.67685522346361        3.89519460801749        6.16421027473948
H            6.73771193662372        3.12877725255908       10.14393008519163
H            6.34019022525771        1.70725732427828        9.15528500901002
H            5.39459956402919        3.22450237808894        8.98515996652477
H            5.13841860885657        1.81101799062494        7.27418024557097
