31
 energy: -6.251443021464 gnorm: 0.000650092753 xtb: 6.6.1 (8d0f1dd)
C            0.85746945513830        0.00233706387816        0.49235002886094
C            2.34216119755749       -0.28317100295149        0.33150536934498
C            3.20095732200805        0.58222740852407        1.19231847071264
C            4.46467941515801        0.99470141817270        0.93633812313889
C            5.25142709399014        0.71620724921266       -0.28755174325033
C            4.90618830945134        1.81216751188118        2.05074444798356
C            6.07687741967836        2.48058577768005        2.24007567268817
C            6.27189095564290        3.23047175057376        3.43616407817121
C            7.45871430351775        3.93653741333252        3.67656157416548
C            7.62510854591200        4.65139918703905        4.83420767290342
C            6.61719316479238        4.68546045346686        5.78676347281842
C            5.44513868905397        4.00298957616849        5.57408423907970
C            5.25134876497166        3.27214922226821        4.40986424937110
C            3.98933817147427        2.55716537792430        4.19744966131941
O            3.10418624642280        2.60354138256914        5.03128681794060
N            3.88093998982807        1.84212109190787        2.99373751746248
C            2.80125796615428        1.07702265838316        2.51206022759425
O            1.73758416406381        0.84990915469065        3.04931948992401
H            0.24004838724886       -0.64545524089217       -0.13259096847669
H            0.62834211209723        1.03668733668514        0.23248582527852
H            0.54764777064959       -0.13738151412966        1.52987709414092
H            2.63666828472721       -0.15028672392520       -0.71616107549555
H            2.55460742552411       -1.33220200658887        0.56990856340565
H            5.01541337291859       -0.26881230099480       -0.69060554017481
H            6.32095413686604        0.73670196042245       -0.07756110862525
H            5.04328657074575        1.45845434220021       -1.05865065769687
H            6.84884068441803        2.45018713005567        1.49454876978335
H            8.24044186792464        3.91058469656468        2.93733272037820
H            8.54205559964875        5.19039868115125        5.00633381446868
H            6.75437843969031        5.24920751475018        6.69473205164122
H            4.65222417272534        4.02106342997974        6.30272114114405
