85
 energy: -16.565235063478 gnorm: 0.000643975735 xtb: 6.6.1 (8d0f1dd)
C            0.24750202854541       -0.00815809349805        0.28982683940410
C            1.76501621515355       -0.10567525378968        0.20522118595921
C            2.33983318740182       -1.11700105326543        1.12920910361705
C            3.45511990159343       -1.01638476016303        1.87452508107679
C            4.24864990438249        0.21887028326887        2.01287086313976
C            3.80828161580681        1.40336337772350        2.49310761748638
C            2.43831854320538        1.70897368682315        2.93275879604432
C            1.74099787602334        2.77682666930115        2.50570706244272
C            2.24308417821315        3.92948246093703        1.71306901810388
C            1.20104824684732        5.01634330425594        1.48845093800043
S            0.00870908157138        2.64364413302983        3.01115456508938
O           -0.32257374346773        3.77866254227114        3.94324742689129
O           -0.73545305732810        2.34575399613454        1.73198834163466
C            0.30638838792191        1.09447751665092        3.85325431647719
C           -0.59224402487427        0.26851928160819        4.47315036681232
C           -0.14323688703010       -0.92532969328787        5.03965771277685
C           -1.10235015469084       -1.94866824350606        5.51824349202820
C           -1.76693865463474       -1.82442215907655        6.73468497016779
C           -2.63607113732086       -2.80092120533499        7.15832777610210
C           -2.86804519475489       -3.93028242994135        6.37824064222889
C           -3.77789931935551       -5.01513981162665        6.79281940928659
C           -4.56529197997243       -4.89410799631474        8.05171096837834
O           -3.88305006421560       -6.00611324473745        6.11006477084594
C           -2.21253785259810       -4.04684756292773        5.16011492415442
C           -1.34538306470995       -3.07282406288610        4.73360035448255
C            1.22603521720379       -1.20198192075756        5.03115688681983
C            2.11698437733684       -0.35358870465270        4.41894045348890
C            1.64882454344235        0.78159525403858        3.76536701093865
C            4.91436965743711        2.43521940147516        2.45952617583432
F            4.93987568624410        3.13791785468958        3.60284178781855
F            4.76222716631916        3.23581197283670        1.39305319077787
C            6.21609830835239        1.61035707807488        2.29558175949057
F            7.10121578880623        2.24993482876093        1.52600983406674
F            6.71345700280925        1.30672933743864        3.50056304202893
C            5.70598934704370        0.31761433305801        1.60790193720735
F            5.79507441608387        0.44542746822040        0.27300549772787
F            6.41110677422801       -0.73379235473017        2.04706046431348
C            3.77502896861301       -2.24271225984690        2.63394926853039
C            4.85849339028329       -2.44843505542423        3.48365027266235
C            4.98857209760966       -3.64685259530377        4.14687992317009
C            4.05213567912661       -4.67230473760752        3.98790336637078
C            4.19396660223137       -5.95226444720840        4.71106929835232
C            4.64914780744563       -5.98498945158392        6.02770144015056
C            4.76885709796480       -7.17386042051001        6.70638935611921
C            4.43709045469974       -8.37591207300245        6.09072638487412
C            4.53996560983333       -9.68073348610135        6.77166708683187
C            5.07168247789518       -9.76218416654382        8.16118417917711
O            4.18986589035958      -10.68662587011262        6.20135228847193
C            3.98503101571834       -8.34695767692767        4.77951755815353
C            3.86478193660505       -7.15976235200458        4.09907484817111
C            2.97281649912627       -4.45667177096626        3.13059264218892
C            2.85485825573577       -3.25943722913066        2.47918681646998
S            1.56051500056377       -2.72914269783729        1.36418725405196
O            0.31692772489824       -2.52737774704439        2.19512997601349
O            1.56865768815331       -3.49702061381149        0.07010305180820
H           -0.15592483140712        0.76385105768563       -0.36799306307294
H           -0.07461927181420        0.23226066847694        1.30394704597897
H           -0.22208374508264       -0.95734788170387        0.02558393497890
H            2.22135824217722        0.87007979770900        0.40758274282032
H            2.07072993156115       -0.36019674878560       -0.81765984410798
H            2.62468501312274        3.56087098970709        0.75261028948150
H            3.11854843330934        4.34718946538474        2.22899795487632
H            0.33822506652034        4.62148849986076        0.94874000308275
H            1.59846876156129        5.85796536421827        0.91874974948640
H            0.82973740682208        5.39905859298525        2.44141380015740
H           -1.63997789230534        0.51185536673271        4.47309685847509
H           -1.58551699586802       -0.95435830376300        7.34161751719009
H           -3.13898334239975       -2.69519944089938        8.10349861282497
H           -5.19896450708851       -4.00824002829529        8.03633054971805
H           -3.91112024699543       -4.84636737083303        8.92134569481796
H           -5.20907710039904       -5.76592519141697        8.16337673860058
H           -2.40351800920412       -4.91992133856106        4.55807205079101
H           -0.84960484699970       -3.14670236182957        3.77887379704424
H            1.57275830373391       -2.11902741317901        5.47517503074903
H            3.16949336360323       -0.57068735352895        4.41213814747118
H            5.59730863658965       -1.67470006806591        3.59711370807616
H            5.84019137999587       -3.81220323643712        4.78348124199419
H            4.89351966030837       -5.05993429150622        6.51995155130570
H            5.11744283463040       -7.17623358457088        7.72419752207085
H            4.42550027068908       -9.23305981929897        8.86066673605183
H            6.07677543945453       -9.34638205235111        8.22358952315831
H            5.11957874471531      -10.80540129016397        8.47155122619733
H            3.73081151076299       -9.28231027019920        4.30865533944479
H            3.52666842810402       -7.15714430675572        3.07745189698999
H            2.22295284806588       -5.21478902963289        2.99181404864954
