79
 energy: -15.125733653105 gnorm: 0.000757286971 xtb: 6.6.1 (8d0f1dd)
C            0.42690490025942       -0.29129513567203       -0.03064040738084
C            1.91986400044506       -0.09377021182188        0.20150393954222
C            2.34357593265579       -0.43116529198858        1.58491764338705
C            3.23999435703671        0.20499415315479        2.36050900215402
C            3.85172980008909        1.49806862085060        2.00734110822993
C            3.18050795509471        2.64540361041064        1.76624041811052
C            1.72012062603800        2.81580349377118        1.80349413157308
C            1.01193920347274        3.38445010649386        0.81197361518281
C            1.53675678931033        4.09931399654752       -0.38103027944029
C            0.44993028414578        4.70660270697819       -1.25729610992143
S           -0.76054706830686        3.15734860755923        1.09533273801728
O           -1.40619969259816        4.50868990544393        1.24625725675111
O           -1.16726463619442        2.13109814983479        0.06679080965542
C           -0.47416119817349        2.33100629904186        2.65583814819731
C           -1.38886100350183        1.80887175869535        3.53030051839701
C           -0.94807586241209        1.20303479980453        4.71009181506255
C           -1.86943297008132        0.58468629386714        5.64918195743571
C           -3.22852454324922        0.48569399615256        5.53312972074673
C           -3.85064767533079       -0.17394639789828        6.61495345057002
C           -2.98585744444635       -0.59349295838533        7.57911472700909
C           -3.40173204418055       -1.29210261286980        8.78993760479292
C           -2.38756511584522       -1.70774975296919        9.79689564212123
O           -4.57113519356896       -1.53532316576677        8.97929852795815
S           -1.36199465432264       -0.16817012361584        7.13216542954222
C            0.42382905776624        1.19520071935958        4.97664155085803
C            1.32989821233524        1.72919288272845        4.09274111755282
C            0.88523412353593        2.26844497946202        2.89024250766236
C            4.13660412662841        3.74751127150041        1.36850128811235
F            3.82268052427322        4.89351046199357        1.99213733893998
F            4.13121804160937        3.89636892896517        0.03474572067570
C            5.53111278285209        3.24319186706423        1.81869306808685
F            6.47803307399181        3.59939226154546        0.94604519807658
F            5.79147395825955        3.68119816433180        3.05611169429410
C            5.34358943433276        1.70350092666621        1.84309344211354
F            5.74608364784724        1.17555814798292        0.67497073842806
F            6.02248055445622        1.18523769445581        2.87545549754052
C            3.46047732832482       -0.44240958356938        3.66939537665544
C            4.33017072958711       -0.03271174740785        4.67663510520689
C            4.37012284932045       -0.72508486136090        5.86381232868650
C            3.55760391117982       -1.84077566011219        6.08908292849183
C            3.61303959072070       -2.54068772323201        7.36220504300470
C            2.86677078847756       -3.62227693437062        7.74193167960097
C            3.14053623211138       -4.07866982067566        9.04924829659218
C            4.09975256520591       -3.36152066751246        9.69650239567672
C            4.54483105385702       -3.64386651753906       11.05572449820822
C            5.66986150746201       -2.86402526796930       11.64068562877508
O            4.01609918685511       -4.52141418142319       11.69864815489676
S            4.67918883421782       -2.09363908723887        8.66126411545832
C            2.70066850610599       -2.25113442526242        5.06537543971930
C            2.66818709851202       -1.55127564582255        3.89077813856562
S            1.65126366030083       -1.85483862894496        2.45168552536800
O            0.23305820303592       -1.46239164089430        2.78559393670951
O            2.02236671891168       -3.12341654464444        1.73457688922991
H            0.11929141398358        0.00267510336987       -1.03569458528750
H           -0.16162649472275        0.29850402600660        0.67454348748913
H            0.14134529153464       -1.33416112034053        0.11950708619727
H            2.20745549222582        0.93942935266850       -0.02319109028037
H            2.49647999061732       -0.71276222294663       -0.49749785391664
H            2.15843889833415        3.40932186027292       -0.96503621190563
H            2.22435842268373        4.88404186364413       -0.03663687479746
H           -0.21964122698795        3.93304245967198       -1.63774935145017
H            0.86192421195095        5.24643223907673       -2.11160263897383
H           -0.16506207287320        5.40334873400533       -0.68379462394573
H           -2.43583138014050        1.86091883348878        3.29310129160286
H           -3.78147908602993        0.87088828486465        4.69085377745277
H           -4.91545146203408       -0.34133177895267        6.69122560753484
H           -1.38230236127811       -1.40870517175253        9.50236172425327
H           -2.40542421914529       -2.78982098474105        9.92076858592969
H           -2.61343291456721       -1.25695194154668       10.76251276283626
H            0.76927999704872        0.74418130998944        5.89011961853379
H            2.38107555826171        1.73336118208728        4.31630089119822
H            4.97940659394380        0.80809953665638        4.50801812733545
H            5.04514399056005       -0.41337415797435        6.64144218760018
H            2.13257641150722       -4.08994169055236        7.10505933307972
H            2.64456168914970       -4.91852533491929        9.51372336516732
H            5.74810660337583       -1.87631788395595       11.18755866975349
H            6.61304462752773       -3.38935878922504       11.49530074145436
H            5.51544347161669       -2.73908580831275       12.71179377731445
H            2.06121750506862       -3.10621811630355        5.18698614497876
