78
 energy: -13.966347322137 gnorm: 0.000946389656 xtb: 6.6.1 (8d0f1dd)
C            4.83551949800006       -0.40805803192797        3.57586529705114
C            5.89613659781888       -0.96942121714870        2.67347388514317
C            4.33266568251965        2.59654499405581       -2.12705493532864
C            5.12221997538918        2.01391137590524       -1.13706347841646
C            5.02929104118413        1.37228795488066        0.19652745224517
C            4.44602385415581       -0.02566241051660        0.10811678613416
C            5.85973837104009        2.14509124242605       -2.60517727930980
C            6.24044757802699       -1.20554008616228       -4.53131713315173
N            7.01627397790464        1.99650698325351       -3.66030028564258
C            7.63036932930768        2.21269331424782       -4.88160102933503
C            8.82168554590629        1.69323518859044       -5.10683000438365
C            9.45220997817954        0.92857748910216       -4.08656212300610
C           10.70380181611388        0.31128120033500       -4.15884224169827
C           11.62127017621894        0.29762727816419       -5.31869234339413
C           10.89779213169400       -0.33445630915012       -2.90113925628394
C           11.90421669939044       -1.11989634596014       -2.40217356553698
C           11.82588794984828       -1.65476774253975       -1.06464981445168
C           10.67470403362507       -1.17202697732043       -0.18135441708383
C            9.55441325702941       -0.46421741926796       -0.86507675454729
C            9.70260059296846       -0.04049031897887       -2.12959223719019
N            8.81171878830801        0.73381717704155       -2.86715204696650
B            7.42199498921701        1.25804858524938       -2.21318195667494
F            6.84137875552262        0.03941024698797       -1.80094081482109
F            7.87022674321466        2.05559517928589       -1.14530924996332
N           11.08352805911319       -0.47443126390099        1.10834069497043
C           10.25155451967775       -1.87354026208041        1.29446530577667
C            9.36554545359988       -1.55159482507746        2.40906185369083
C           10.02744580478526       -1.19586803408434        3.53844259832278
C            9.50880665290562       -0.76930815311270        4.80651909826574
C            8.08063114073124       -0.48469890291832        5.13501010590471
C            7.66853058788471        0.92176398412105        4.72712932709773
C           10.62477222971496       -0.50787701116815        5.57450764046499
C           10.63828207656543       -0.03841256537263        6.99395098350924
C           10.54423433945080       -1.18475421181836        7.98699134621223
C           11.75717576927211       -0.79001987793413        4.76868497345226
C           13.16468831069673       -0.61486644202172        5.18672193627370
N           11.44034430030038       -1.19039121017038        3.52973922953618
B           11.97915806753107       -1.47783930751261        2.06898651481497
F           12.32414609420480       -2.85597665812201        1.97085836878787
F           13.21795976698158       -0.77264279812677        1.92465945885270
C           12.69189177843753       -2.47613948070060       -0.66318268953266
C           11.00228685862007        2.53481839209558       -0.29441502709011
H            5.13773061046594       -0.41227584049015        4.64395117367229
H            3.89401662669610       -0.98818092238431        3.49903993327518
H            4.58174278648783        0.63930307599620        3.30806688376696
H            6.23234805281454       -1.98735545598056        2.87771108330720
H            6.72337202397826       -0.30467728025675        2.41366450492772
H            4.42698909996985        2.00297886984718        0.86035890756079
H            6.03231480777411        1.33444146353354        0.64090931202293
H            3.46882622017367       -0.01304868060681       -0.37598150535808
H            4.32451721129162       -0.47925320562782        1.09331815590961
H            5.09723152414496       -0.67412311450233       -0.48106997131309
H            5.17298174040836       -1.21153875810157       -4.49925316147485
H            6.62137721278131       -1.93218683100304       -3.84846182882272
H            6.59741260590206       -0.24026622312881       -4.24639347214373
H            9.31233458495679        1.84426719346371       -6.05090527924553
H           11.75791255738073        1.30285229585993       -5.71816502251863
H           11.22799280219109       -0.33368113966628       -6.11594173984141
H           12.60305840736064       -0.08496503922287       -5.03960589336565
H           12.75179894682560       -1.36152824631439       -3.01626004139259
H            8.66088954743551       -0.21448432162092       -0.32324060009897
H            8.29760026295442       -1.56684206748180        2.32334220545798
H            7.91465647739963       -0.63944115586684        6.20713621207804
H            7.44182413923821       -1.22194703343064        4.63368811827326
H            8.25105878828995        1.67636737237632        5.25687338351786
H            6.61152694043358        1.11061459883120        4.92216305777580
H            7.83070805754759        1.07732008837131        3.65976703652894
H            9.81269446554894        0.66726274804909        7.14472349382012
H           11.55000664683038        0.54490959150587        7.16917729438621
H            9.62785288022087       -1.75790313692837        7.83884980087440
H           10.55256920057715       -0.83529222102792        9.02138173234901
H           11.37756827188440       -1.87822176673615        7.86449200371759
H           13.37810790209987        0.43066712954151        5.40878096714722
H           13.83203619343489       -0.93132972369711        4.38449891479240
H           13.38836544326483       -1.21038432115148        6.07186484223319
H           11.15134399087249        1.61396738457499        0.22607602355753
H           10.00166258783138        2.55211432172534       -0.66781247640926
H           11.68470116600436        2.59089647502332       -1.11423844881001
