43
 energy: -7.490619159291 gnorm: 0.000660750789 xtb: 6.6.1 (8d0f1dd)
C            0.70004901639867        0.29506922365618        0.79782520839738
C            2.01494904718107        0.35489770017919        0.04150881670333
C            2.79237712721033        1.60005417133160        0.34676032996299
C            4.08202876387659        1.78008843230035       -0.12497257349554
C            4.76607276581188        0.71299176295805       -0.93142352747329
C            5.66422640421778       -0.18152876112598       -0.08956620819862
C            4.77071491374878        2.98041423525404        0.20658583992876
C            6.08589051158528        3.26264382186898       -0.20732846258063
C            6.70295897281068        4.43982865513053        0.14113202869929
C            6.04515613381751        5.37665906186540        0.91157199949143
C            4.74571972874143        5.15045452304854        1.35093194231966
C            4.10404423867773        3.94167223313149        0.99338203411924
C            2.77941649647895        3.68498239987180        1.42987865512738
C            2.12563992136633        4.63836506540266        2.20921600698710
C            2.72109992299664        5.84341205744242        2.58576322417382
N            2.01095728379045        6.69755169984195        3.33935415754910
C            2.65092979478110        7.83025890653515        3.66566361949824
C            1.98422603381624        8.78751767846002        4.45295179410261
C            2.59465934135930        9.95378491284911        4.81453187286569
C            3.89825031717411       10.21696009638936        4.40611377031477
C            4.57495794294237        9.31013851067669        3.63958247592785
C            3.97997140321790        8.10023986159327        3.24733063604571
N            4.68890424212536        7.23926454402050        2.48698406398916
C            4.05647786526477        6.12485805262566        2.16243647495511
O            2.13605473087752        2.52180717589554        1.10323805875334
H            0.12904398539975       -0.60703221116243        0.56921912411908
H            0.07788084438956        1.15813905737596        0.55604351338584
H            0.87160917417376        0.32212088101517        1.87489949029577
H            1.82641803881579        0.30992483186749       -1.03725564595974
H            2.62476222878966       -0.52204944445148        0.28485085189076
H            5.33867031792295        1.18260039808157       -1.73906953713477
H            4.01708723980547        0.11008724718528       -1.45603392462840
H            6.44254517914387        0.39668119579618        0.40957155531031
H            6.15684286386751       -0.94930292425396       -0.68911213023400
H            5.09585561010310       -0.68765261191843        0.69155233855996
H            6.62197002367333        2.54817205181467       -0.80520825754103
H            7.71003664543634        4.63582633386620       -0.18901921682791
H            6.52826150551952        6.29881768114271        1.18532831375494
H            1.12203153643739        4.43549520894530        2.53267748868533
H            0.97581951731110        8.57494187985010        4.76461358751504
H            2.06673999804171       10.67400460714210        5.41866488437355
H            4.37454402795122       11.13960775268291        4.69617537178968
H            5.58347834294857        9.50759204381820        3.31901995448205
