11
 energy: -1.468557458525 gnorm: 0.000669190867 xtb: 6.6.1 (8d0f1dd)
C            1.07410052090635       -0.01909041532566        0.06179949335176
C            2.59605407671961       -0.00062025537419        0.03449718948654
C            3.15499073075597        0.79004883473872       -1.13427128143309
Br           5.06835928738460        0.81468624213675       -1.17069419219217
H            0.68498440521357       -0.59093923706184        0.90710788064560
H            0.66852281956314       -0.46285892192881       -0.84936588377383
H            0.66852234062654        0.99177084357411        0.13468711703675
H            2.99001249344484       -1.02554742325720       -0.00411555079241
H            2.99001272262967        0.41656671855873        0.97147240262966
H            2.81569192285601        1.82790904218718       -1.10339640176266
H            2.81568867989970        0.37523457175221       -2.08613077319614
