52
 energy: -9.204475188484 gnorm: 0.000857314015 xtb: 6.6.1 (8d0f1dd)
C            0.61200938904895       -0.19695459979221       -1.12570463626991
C            1.95058112709955       -0.70125858151836       -0.61381817215392
C            3.10841476249866       -0.30506896352742       -1.52088140944351
C            4.38553430253544       -0.98551376447097       -1.12015848423934
O            4.76013437107780       -0.88577282502056        0.02571080973997
C            5.10649586400956       -1.76720055435492       -2.11979996000947
C            6.01582067063606       -2.77536509115872       -1.76679015265700
C            6.59984247077611       -3.61554360368231       -2.74774375002004
C            6.28244841443276       -3.49505410087659       -4.11218308944002
C            6.85108636743236       -4.38211475088352       -5.11669160064550
O            6.48672423787289       -4.36870145065627       -6.27054866225460
C            7.91365897417260       -5.36104041661768       -4.70865738656521
C            8.75649800965740       -5.80808348651748       -5.89690557734417
C            9.82751076313343       -6.81905214473483       -5.52590670947168
C            5.37694558994448       -2.48242332455475       -4.46302349369364
C            4.83977450930897       -1.61272277932495       -3.48862528480115
O            4.04517888252729       -0.65792785043883       -4.09881167075300
C            3.89302650141265       -1.10481301716051       -5.45693543014306
C            2.45934531830584       -1.62957065833350       -5.65723768613674
C            2.00890621194823       -2.48786329271696       -4.51380707659655
O            1.46003708578189       -1.97918648579483       -3.56261998187219
O            2.27775258074841       -3.81543904916238       -4.61554846141281
C            1.86733378711493       -4.47183571871708       -3.46313321646997
C            4.18751511041266        0.06908937619819       -6.39842799232696
O            3.52394525496009        0.19009702842295       -7.40082134185861
O            5.19628732519944        0.86656280346910       -6.00025023358318
O            4.85234803874801       -2.15480826581971       -5.69830224408988
O            7.45001457424319       -4.52203011674537       -2.12857210245727
C            7.37031130292167       -4.21826660048251       -0.74699054285820
O            6.46876897694523       -3.15185379800684       -0.51424239211442
H           -0.21194990632184       -0.48246893508835       -0.46974632074493
H            0.40251653823956       -0.60370368868647       -2.11756869397609
H            0.60649978132226        0.89024691297839       -1.21208012757757
H            1.92961395789909       -1.79550762857858       -0.52861960565651
H            2.14939518165934       -0.33920072094885        0.40310127323286
H            3.25803706682880        0.77860081048936       -1.50871352095224
H            2.85421056478503       -0.56969546508648       -2.55256151746875
H            7.43668259476348       -6.22429518933724       -4.23413674714251
H            8.55213867946001       -4.90959499706899       -3.94240898147992
H            9.20730051207983       -4.92349523024220       -6.36487529750295
H            8.08752980077399       -6.21740753791372       -6.66544547639142
H           10.51667346503320       -6.40835937730418       -4.78696914460239
H           10.41681965238026       -7.12575297228675       -6.39184919023415
H            9.38697814999156       -7.71772832987129       -5.09249385373891
H            2.42282705622507       -2.19002286311908       -6.59370784258778
H            1.78393700021528       -0.77683561136241       -5.74967384946069
H            2.05597035885085       -5.54098193522982       -3.58110170294205
H            0.80039567638247       -4.29077713992864       -3.31273955913009
H            2.43369806175245       -4.08144788759937       -2.61427912261977
H            5.54458086195530        0.54884463993991       -5.13870601092980
H            8.36559472401932       -3.92549419775309       -0.38583526221589
H            7.02102944680041       -5.10612657301872       -0.20288151393425
