55
 energy: -9.651220140413 gnorm: 0.000919123995 xtb: 6.6.1 (8d0f1dd)
C            0.72179023793300        0.79846296575187        0.67507579990081
C            2.15308976674984        1.14106018310130        0.29732123224148
C            3.16718996446886        0.57775038707481        1.28436571802839
C            4.55016775421867        1.10201792156320        1.02258163285739
O            5.00707852861319        0.99803537989722       -0.09269802844933
C            5.27371174602756        1.74490404207042        2.11510920555890
C            6.34391790108439        2.62318765816992        1.88804953837549
C            6.93933241172059        3.34741992139979        2.95157380588547
C            6.47420465697577        3.24115278264961        4.27464199894404
C            7.05445919344168        4.02119742876422        5.36010898624619
O            6.53327619035236        4.10292103212583        6.44930848015801
C            8.33442296693893        4.76785908694125        5.12251239909170
C            9.17074615309634        4.86674843578388        6.39202080424627
C           10.46385254130903        5.63918941070555        6.19723666166639
C            5.40843163670533        2.35693997598640        4.50011825921468
C            4.85822399023625        1.59238496835456        3.44705043453305
O            3.88271561823585        0.74578420982574        3.93604715140964
C            3.71478134092347        1.11523835890243        5.31412080599433
C            2.31022839625233        1.72630310426963        5.48115273398115
C            1.98201697036789        2.68170289365900        4.37317119727023
O            1.44672363597839        2.27357894045795        3.36683993038965
O            2.34220979078128        3.97651257406145        4.57328530470198
C            2.05783019460818        4.72755172889334        3.43972456538000
C            3.89763792271710       -0.12595192969333        6.19603453619118
O            4.93444056476724       -0.74078285732522        6.13227893243250
O            2.85715340253810       -0.45591404662226        7.00306874999860
C            3.19929462141275       -1.57615861692488        7.74964045299592
O            4.72202525829633        2.08558258871796        5.66603588666443
O            7.95965262331112        4.14432486981389        2.44953779991396
C            7.97178697786307        3.89339363325927        1.05544668616089
O            6.96300016650815        2.96613762456692        0.69844515527385
H            0.00120077577844        1.20455778235578       -0.03663457117542
H            0.47785353324828        1.20017866884975        1.66099861484129
H            0.57369759841250       -0.28108805435802        0.71851898874520
H            2.27681243003032        2.23089620092008        0.24946425156818
H            2.39430559443304        0.78209412280713       -0.71162570705324
H            3.18392466697092       -0.51560951607428        1.24286716700471
H            2.85341722958747        0.84189345412345        2.29961937937908
H            8.09584041036855        5.76710653500529        4.74518572439708
H            8.90849428668339        4.27364924899214        4.33227654223154
H            9.37909529989740        3.85395382392378        6.76010906534515
H            8.55907452930010        5.32873191898255        7.17817370237110
H           11.09236520826181        5.16874524852427        5.43999155057467
H           11.04651643143336        5.69912440245513        7.11816955967485
H           10.26668448956993        6.65926659883709        5.86530436746287
H            2.25546402907565        2.23280539419026        6.44605438580877
H            1.57606553641009        0.91890823209740        5.47976137975465
H            2.31591508814081        5.77038392372508        3.63514768657417
H            0.99333408381425        4.63679111074342        3.21095303529180
H            2.65037807451468        4.34405907295315        2.60586692253412
H            2.34618278160649       -1.87314739221577        8.36324683556371
H            4.05400915308043       -1.32412186790249        8.38288401701945
H            3.47498583012950       -2.38333345529727        7.06580965660046
H            8.94924534055970        3.47946588839880        0.77346512001955
H            7.79610447426284        4.83558400176556        0.51929550821182
