83
 energy: -16.210479988027 gnorm: 0.000286975119 xtb: 6.6.1 (8d0f1dd)
C            0.55940649573213        1.13118273349665        0.88265550128467
C            2.07574045210600        1.06914398683656        0.80645167893684
C            2.59953623494205        1.16305438705211       -0.62600894080821
C            4.14440523101086        1.10390805856313       -0.73005888907931
C            4.59190877925958        1.20471960626040       -2.21014926393717
C            6.10785554303300        1.16162333883824       -2.39878408065977
C            6.52266935575020        1.27195202272612       -3.85645392800630
C            4.79003366998180        2.20797990215824        0.10882538266588
C            4.65051418553843        3.57463744669489        0.03369505210313
C            5.33978591860279        4.38998438213334        0.92931030975940
C            5.13769323055121        5.83516690679827        0.85570857071159
C            5.80961541210670        6.81230122520018        1.58067018694375
C            5.27816587303660        8.03246278986425        1.21129049589153
C            4.28914331479406        7.78142323191540        0.26683553852650
C            3.43557423819751        8.76784504879143       -0.39459523814445
C            2.52735269565813        8.34022678073053       -1.35682586561129
C            1.69418751350176        9.23189805276486       -1.98404330964881
C            1.72993388866129       10.59462246331462       -1.67374793755049
O            0.84180832352238       11.43409298776829       -2.35251990438849
C            0.89155003593972       12.78487061455226       -1.96213850372527
C            2.64733354508203       11.02015089075697       -0.70747076420816
C            3.48133671880852       10.12537727388270       -0.08281694223971
O            4.20708201092597        6.43086245546617        0.03929374757949
C            6.17238895136493        3.80306279352210        1.88921081309689
C            6.31281328792903        2.43590107575519        1.97215112528776
C            5.61438600951367        1.63151340689203        1.07994600919827
C            5.54515007563968        0.17308349948035        0.96861587997483
C            6.14247532864877       -0.81773872555147        1.73775081027944
C            5.86755191630308       -2.13568329655100        1.45127748349276
C            5.01021799063762       -2.49252148931280        0.40771251710805
C            4.72506613730008       -3.90767239313281        0.18251263626775
C            3.98678172000060       -4.45312351831538       -0.86118372076362
C            3.94940212670766       -5.81966832764267       -0.66447591534313
C            4.66471313465749       -6.08755283058508        0.49729675649284
C            4.87619436578078       -7.39575236244864        1.11618778943545
C            5.64732182751099       -7.48189898273165        2.27011176065600
C            5.84935150908053       -8.68749623359253        2.89335830559423
C            5.28494132582070       -9.86368157683787        2.39077255643212
O            5.53082171643585      -11.04793053818496        3.09170701211973
C            4.88733181901665      -12.18590169268841        2.57184551843765
C            4.51424279875752       -9.77248950105199        1.22715458699436
C            4.31536796870768       -8.56450251918684        0.60459420593420
O            5.15089315385275       -4.91370104513654        1.01537596203868
C            4.42085885862757       -1.49071703801026       -0.36617724506068
C            4.68693015532919       -0.17085895829345       -0.08108108037106
H            0.19714160610172        1.06284456870726        1.91069351321820
H            0.10260202635248        0.31614732476279        0.31846742313588
H            0.18161523260253        2.06499387291670        0.46253572315302
H            2.43999203943588        0.14100874598783        1.26591218227829
H            2.51780985677574        1.87432444390845        1.40766848098994
H            2.24874907444599        2.09228365757106       -1.08581772563094
H            2.17232427494820        0.35502406948860       -1.22808661414182
H            4.19469673389330        2.13085032614399       -2.63736439163774
H            4.12667453156476        0.39258617348082       -2.77753737110435
H            6.50154252034938        0.23444587503468       -1.96224853602133
H            6.56896896194089        1.96755187493627       -1.81304852673283
H            6.10170125942739        0.45782032249713       -4.44906385504060
H            7.60760586469582        1.24006226568170       -3.97785625188931
H            6.17039669351353        2.20642092238844       -4.29683484094290
H            4.00548916601754        4.01898395083715       -0.70193240737683
H            6.59666918738212        6.65030514971647        2.29691957856622
H            5.57360041175943        8.99653586824013        1.58801142405622
H            2.48819420464743        7.29138446164033       -1.59619794120981
H            0.99104816951442        8.89833102869387       -2.72633281095986
H            0.15111779282347       13.33952658111429       -2.53947575771500
H            1.88035402203244       13.19611532626616       -2.16818040126434
H            0.65208195747458       12.87385573177604       -0.90179486097597
H            2.70133124660037       12.06150512260292       -0.44754863581160
H            4.17691827505301       10.47118785333638        0.66137195438970
H            6.69871008851220        4.43468731393961        2.58259544799166
H            6.94361889023192        1.98551390939204        2.71800926359020
H            6.79584979299628       -0.54799188729875        2.54847316698537
H            6.30599695926240       -2.92257576197389        2.04052930098664
H            3.52723109495802       -3.91243870656487       -1.67066569056493
H            3.45235264500060       -6.54030613738222       -1.29077560963485
H            6.07898154745096       -6.57954642927100        2.66810626515194
H            6.44369519801705       -8.75103416483892        3.78746357082136
H            5.12511785325854      -13.03903942000393        3.20810872439122
H            5.24588224157376      -12.38757015263826        1.56185932744545
H            3.80719067436710      -12.03460421561624        2.57273078770265
H            4.06955510675992      -10.65882485383103        0.81294256284509
H            3.71569275041949       -8.51397994321944       -0.28706675470905
H            3.74855520337527       -1.74069140135003       -1.16534637809340
