116
 energy: -24.940514268725 gnorm: 0.000752233606 xtb: 6.6.1 (8d0f1dd)
C            1.03537163624923        0.15362645108781        0.23911296939076
C            0.21929325796323        1.20660236311978        0.04495523355737
C           -1.23025925100632        1.19208633487993        0.17180468792382
C           -1.95576092562329        2.18624679533156       -0.48099542315556
C           -3.34195551379451        2.24674914490999       -0.45652309312467
C           -4.03710209605133        3.34978453454700       -1.16257304638994
C           -3.77170300163643        3.60707643984072       -2.52892969496391
C           -4.40694595659612        4.60881463193259       -3.19362631485315
C           -5.35468863497748        5.42742185706374       -2.53494666831444
C           -6.03778421190617        6.47160345969142       -3.19567202583250
C           -6.94602235941321        7.23948232987012       -2.52849699774204
C           -7.21637095001967        7.00425136925423       -1.17460920640537
C           -6.57488537278110        6.00579740336805       -0.50552957914981
C           -5.62660135124034        5.19043981486636       -1.16599741030000
C           -4.94701321081893        4.14857049559687       -0.50481824869815
C           -4.06072881570459        1.24871063439596        0.25054559377295
C           -5.50958182378847        1.24104234624787        0.22823870771182
C           -6.30610741399508        0.49491528120790        1.01523818298039
C           -7.75444614989648        0.49384306625555        0.96802750930790
C           -8.47538380779696       -0.25477463506006        1.90507120932987
C           -9.84705286970978       -0.28391233617293        1.88541452254741
C          -10.56437365452916        0.42879223968482        0.92455197291977
N          -11.99237363641104        0.38670029981122        0.89290966139532
C          -12.74234401368672        0.23349490823778        2.10807665967390
C          -13.88828902477404       -0.55721672557176        2.14049609368093
C          -14.61351950624345       -0.69559123599032        3.30248319387414
C          -14.20947397884890       -0.04594042758221        4.45271435470429
C          -13.07604294805047        0.74361004619958        4.43609053434018
C          -12.34876398617161        0.88303562507577        3.27549789281260
C          -12.69172976919061        0.48794300448308       -0.35763695537353
C          -13.87774219149133        1.21166654856415       -0.45179595794676
C          -14.55140225540647        1.30326889143862       -1.64895524048881
C          -14.05494906825094        0.67229086476755       -2.77319187884651
C          -12.88118970285248       -0.05183303180874       -2.69503873672809
C          -12.20525990822757       -0.14431816646846       -1.49931391826701
C           -9.85017978674997        1.17734336656828       -0.01105302469557
C           -8.47846364639887        1.21261867972088        0.00946107200422
C           -3.33807263096697        0.26980719179782        0.92722269803605
C           -1.95026126501723        0.22350911894369        0.92422365813616
C           -1.27232062061647       -0.82610997132903        1.72400073078262
C           -1.44274333924726       -2.19371458931354        1.40008760681026
C           -0.74972202283770       -3.16263267958551        2.05517825171597
C            0.16303464130247       -2.82957947143722        3.08380479523491
C            0.92746662553607       -3.80703244966103        3.75707254064696
C            1.81047700666159       -3.44854078478237        4.73228100455697
C            1.97190076019474       -2.10264478824174        5.08411834157058
C            1.24779581656074       -1.13347921105375        4.45774792726998
C            0.32395908027019       -1.46900032570756        3.44108177475953
C           -0.41677552582074       -0.48906722250064        2.75094576373583
C            2.48144450386080        0.16732060087093        0.17963011281921
C            3.19278155349326       -0.94492984139608        0.64292507015708
C            4.56390375709163       -0.96705180759288        0.61946416662770
C            5.28963430106206        0.11972912962003        0.13113819450442
N            6.71741513785764        0.09834113164002        0.11197642508948
C            7.42516694586963       -1.14546645096237       -0.01336027620261
C            8.58669700755788       -1.37642075746303        0.71946486215037
C            9.26936516520741       -2.56564254232656        0.59731890315290
C            8.80692376619060       -3.54491470998188       -0.26025937663725
C            7.65845115578012       -3.32929758955675       -0.99706710546509
C            6.97385729499483       -2.14097748372075       -0.87651131070684
C            7.46602490312408        1.31914796558343        0.22601639943257
C            8.61727845967723        1.51727626671527       -0.53213678904906
C            9.34097255553331        2.68289472796053       -0.41895435621358
C            8.93030158382799        3.67079990829387        0.45489941898670
C            7.79291086237784        3.48740349119502        1.21713684088677
C            7.06734191743356        2.32274355159592        1.10556628465248
C            4.58281439934673        1.22975504574980       -0.33316115219844
C            3.21073162014261        1.25616452619400       -0.30901528229295
H            0.59155292154134       -0.79312220963466        0.48203163701414
H            0.65941376432473        2.14588580315375       -0.23816740940200
H           -1.42086347883212        2.93863161249732       -1.03257404286415
H           -3.05922830223286        2.98311303492453       -3.04066483685932
H           -4.19795117498828        4.78995145773439       -4.23387818054428
H           -5.83111171226775        6.65354823432866       -4.23631391242251
H           -7.46122088797747        8.03379119093747       -3.04360710826284
H           -7.93741478951534        7.61960200424577       -0.66152996212749
H           -6.78356433201801        5.82397204339997        0.53471523192710
H           -5.14208836920182        3.97522716629619        0.53812999026697
H           -5.97293455048184        1.89830469231141       -0.48294424655290
H           -5.85355043500820       -0.13952350948331        1.75489041792432
H           -7.93706913808842       -0.81517087942980        2.65029667364707
H          -10.38830335142452       -0.87406851937715        2.60398141275224
H          -14.19352052673134       -1.06527903399979        1.24238098838606
H          -15.49762459220610       -1.31201770835938        3.31507920653351
H          -14.77841565591871       -0.15391493773426        5.36176041151396
H          -12.76194186920937        1.25297240459490        5.33256688258547
H          -11.47227930821794        1.50685551997048        3.25238754215600
H          -14.25485223121831        1.70575369910946        0.42658729745894
H          -15.46702506752453        1.86864975287165       -1.70978029958391
H          -14.58342889112580        0.74406461401387       -3.70982277287053
H          -12.49510266516895       -0.54687952371935       -3.57120145660145
H          -11.29673185340543       -0.71659267635394       -1.42871837714128
H          -10.39594053214703        1.73999725511912       -0.74818271310306
H           -7.95724290656070        1.79806047001522       -0.72639275219259
H           -3.86256872369215       -0.49079291185436        1.47481448372425
H           -2.11827100225152       -2.45294050482688        0.60301737346785
H           -0.87823530096807       -4.19770230441056        1.78926474496923
H            0.80637808990942       -4.84164656535439        3.48569191754358
H            2.39096782855248       -4.20367633752118        5.23675659515938
H            2.67637611939000       -1.83521542914172        5.85474796539999
H            1.37653954353924       -0.09843932006525        4.72376110701583
H           -0.27839687222469        0.54740667954070        3.00016349650498
H            2.64674514403653       -1.78264792335639        1.04234457428040
H            5.09837101656084       -1.82057223856769        0.99804114075225
H            8.93709741598368       -0.61138709258698        1.39015805402986
H           10.16566057925940       -2.73308225004496        1.17211274919671
H            9.34207509157267       -4.47562874287822       -0.35558205926277
H            7.29895833714528       -4.09185803039470       -1.66864823325114
H            6.08598728965626       -1.96171718855638       -1.45745524762822
H            8.92785999942918        0.74552771244016       -1.21465217632984
H           10.22865688471457        2.82527767237719       -1.01349614726629
H            9.49750897673466        4.58307407752571        0.54282488266151
H            7.47425718072379        4.25635773668856        1.90189337754398
H            6.18831545281361        2.16775469057033        1.70656562825447
H            5.13366497359949        2.06600418763402       -0.72665856284222
H            2.69044239451299        2.12049947643647       -0.68142803916808
