108
 energy: -20.340722964394 gnorm: 0.000491776519 xtb: 6.6.1 (8d0f1dd)
C            0.77411108992592        0.00348439454181        0.45254601973118
C            2.26959344939485       -0.26943396330419        0.41137977788625
C            2.82720507386687       -0.25415759207809       -1.01148264104270
C            4.35968515698751       -0.46432379331827       -1.14353274713957
C            5.15312923971611        0.68406614348701       -0.47189329279812
C            6.66637672691060        0.57584608993102       -0.65897105117657
C            7.42275938095470        1.71312328041479        0.00781774605786
C            4.79517571698129       -1.82985312767191       -0.59990292855913
C            4.82756257978475       -2.30738793924134        0.69159913307317
C            5.29439071243322       -3.60038408243096        0.94863282032424
C            5.31798728079009       -4.12585173308891        2.32861619531037
C            4.31914667420921       -3.78608280986228        3.24351783928145
C            4.33920564957000       -4.27641533153619        4.52434316396016
C            5.35804487645716       -5.13098360675545        4.95908694835411
O            5.30113632026845       -5.58634019000308        6.27712627644362
C            6.34800426175825       -6.45112239366765        6.64809927167934
C            6.36021392572985       -5.46794707686765        4.04214553910024
C            6.33784085136192       -4.97683824933897        2.76053543354743
C            5.73822149463394       -4.38384964325294       -0.12522309388860
C            5.73274774580564       -3.90495342199710       -1.41584925684917
C            5.26243656660782       -2.62012772808143       -1.65504480569580
C            5.20854439186497       -1.85115618071574       -2.90052970070248
C            5.58592558543021       -2.19824024366786       -4.19144704206104
C            5.46077850154603       -1.26510133267745       -5.19645799114125
C            4.96885038402724        0.02193463880524       -4.94312704035246
C            4.84591296247002        1.01107172601606       -6.03486313656848
C            5.17308828605096        2.35592330189026       -5.81779261332748
C            5.05460009368915        3.29588500943399       -6.81699931233189
C            4.59959469321687        2.89485750507632       -8.06652303744342
C            4.26797873967386        1.55779509914203       -8.29993418982365
C            4.39171826740950        0.62132703342506       -7.29814487587519
C            3.78534253902280        1.39598434974717       -9.74605804650031
C            2.34461080159458        0.82815970334169       -9.78425766487769
C            1.34294924547622        1.64341183837986       -8.96633234742689
C           -0.06316656940651        1.06925377440722       -9.01838097539119
C            4.78306100656573        0.47815047811799      -10.50217416520494
C            4.53591263138506        0.31179512357820      -12.00120223173347
C            5.51950314497354       -0.65025382790761      -12.64923061928307
C            3.82516820616307        2.83579845396562      -10.27138759506197
C            3.40710423918511        3.35997397275370      -11.47464213834937
C            3.52886090392786        4.73116197517765      -11.72133477932311
C            3.08970499616609        5.30254771672444      -13.01077429172849
C            3.79213416868264        6.34922038815657      -13.61139834765458
C            3.38239187607702        6.87789873405396      -14.80888280611430
C            2.24865467364231        6.39094128773651      -15.46846076628015
O            1.90065366270851        6.98759250335833      -16.68107304400179
C            0.74366270117484        6.46197773103874      -17.28623817909425
C            1.54589222088772        5.34165868624384      -14.86528803427774
C            1.95880895614932        4.81242745062233      -13.66796106199358
C            4.06654153087947        5.55221215430904      -10.72107324866369
C            4.45924179216686        5.04089954446233       -9.50486267657793
C            4.33376698868467        3.67670211922389       -9.27615343600223
C            4.59282454589740        0.35714554341817       -3.63921289881408
C            4.71213025870981       -0.57316821702672       -2.63142918823408
H            0.38308748544158       -0.00510520479811        1.47250352301012
H            0.22012567538798       -0.74439572371029       -0.11794174409707
H            0.53795265235098        0.97733164028350        0.01942132827162
H            2.47990586470692       -1.24030730734649        0.87639683981709
H            2.80037005467489        0.46808058453433        1.02621147490554
H            2.56642196858544        0.69377748162227       -1.49329514338077
H            2.32476961511172       -1.02636415157159       -1.60366905965912
H            4.92145854436734        0.70519480526029        0.59693934314895
H            4.80029027800840        1.64013199778032       -0.87155389643435
H            6.89887915967512        0.54477003765885       -1.73161652439424
H            7.01214721617623       -0.39006934122716       -0.26767965247540
H            7.11651898442119        2.68022923232843       -0.39547920172918
H            8.50268105793576        1.62578124594910       -0.13161761075140
H            7.23114313641068        1.73783321617077        1.08224511585019
H            4.53243061133850       -1.67288174437051        1.50667894483369
H            3.51471913895167       -3.14447176274612        2.92776660083481
H            3.56454300118723       -4.01475593447852        5.22323573644920
H            6.20162205928304       -6.74858021616988        7.68693774580627
H            7.30518461194506       -5.93585492893175        6.56060528772554
H            6.33472134848016       -7.34254824833062        6.01989623291215
H            7.16168385286982       -6.11703188706651        4.34460158845280
H            7.12785893903103       -5.23382962152461        2.07612544860583
H            6.08246908929860       -5.38495894208656        0.06807590278924
H            6.08976602679579       -4.50562485884036       -2.23395498493320
H            5.97310097171224       -3.18206187380000       -4.39033721632311
H            5.76169510047580       -1.51707319289616       -6.19865518496458
H            5.53436588392737        2.65151145267136       -4.84792961761936
H            5.30217949170737        4.32826993925020       -6.64296854117897
H            4.11899690532203       -0.40145016320329       -7.48305572454995
H            2.36054475464942       -0.20509140487670       -9.42309014589453
H            2.00545566099965        0.77486148649286      -10.82284403739325
H            1.34214641936411        2.68152264933603       -9.32415106178441
H            1.68776366532871        1.70451734810026       -7.92567330951535
H           -0.43774043821845        1.03550887300329      -10.04318821925400
H           -0.76951952089076        1.65859370583011       -8.42925119289514
H           -0.08658023066918        0.04791747805888       -8.63354705483708
H            4.77764711232802       -0.50592486562931      -10.02226686548289
H            5.79342766810739        0.87035457387707      -10.34486972769110
H            4.59908045323214        1.29012049121789      -12.49308240656834
H            3.50882172232072       -0.03385006747238      -12.17236886515106
H            6.54835298934954       -0.30862865095887      -12.52059541814362
H            5.34162960569172       -0.75958352410177      -13.72150092587204
H            5.45276633851533       -1.64412434174544      -12.20255333623597
H            2.98039687886155        2.71726978327905      -12.22197803458734
H            4.67687011137431        6.73020957739336      -13.13129757826351
H            3.92924643999752        7.68188500777231      -15.26884125897400
H            0.56322118338905        7.00088072419304      -18.21689160298834
H           -0.11515439455426        6.59782649070423      -16.62786973868743
H            0.88897259105576        5.40511514522852      -17.51272659337134
H            0.66907618269134        4.94439410829067      -15.34331429672867
H            1.39520081750834        4.01659599304862      -13.21221673064132
H            4.14436142334645        6.61000459677887      -10.90317179388744
H            4.84766839048665        5.68015662568663       -8.73156109505234
H            4.19757424990643        1.33291639975211       -3.42402458641513
