149
 energy: -26.519637248216 gnorm: 0.000549539134 xtb: 6.6.1 (8d0f1dd)
C            0.37245905629956       -0.49638530884005        0.35829062471182
C            1.87213887864956       -0.29211445814755        0.21055603609930
C            2.67727800829344       -1.48839936191468        0.71785213529031
C            4.21592430206257       -1.40452657236928        0.52785296838925
C            4.60456338124262       -1.37440676525843       -0.97131770728250
C            6.11367978631345       -1.39200681995453       -1.21410823413448
C            6.47035114691506       -1.38140292430113       -2.69148527283956
C            4.81958144396775       -0.21303085988322        1.27879194037918
C            4.68437727917775        1.13947012706629        1.05798899845992
C            5.36420171503327        2.04977565474803        1.87041649526791
C            5.17684648331464        3.50346358916371        1.66320442637972
C            6.27368358109184        4.36755013432326        1.56051525039813
C            6.10417600302466        5.71914626103791        1.35054954490413
C            4.81581664849860        6.22759652126224        1.24557142123925
C            3.71257926729991        5.37897501657609        1.35887937541487
C            3.88655871346303        4.02836060829297        1.55948718825352
C            2.42137050956692        6.19486367017480        1.23563547665322
C            1.57062798515193        6.06829883537470        2.52445137309288
C            2.32712224857870        6.45025868386651        3.79688604620618
C            1.47257121541489        6.32801443438007        5.04764335467750
C            1.64147621056306        5.70698081619785       -0.01466151232727
C            0.38550475860752        6.50056368120890       -0.37394389220579
C           -0.36712425097316        5.89567259131084       -1.54878887016832
C            2.94842733386947        7.62432731942872        1.06653716751119
C            2.26685697542404        8.82224962623109        0.99214933512991
C            2.96395924967542       10.02158070463690        0.87076374482705
C            2.24650947038222       11.38039239631828        0.77406424574799
C            2.69211397504112       12.26121228033544        1.95510453443468
C            2.63664594431369       12.05302323173628       -0.55447265637296
C            0.70022489645943       11.20150355130510        0.82290773965899
C           -0.11205963153821       12.48451656952467        0.72613634803410
C            4.35786512718776        9.97815331228412        0.84358402643975
C            5.05349602245035        8.79053063176706        0.94446242132623
C            4.34395470214739        7.60567444371345        1.06032265757707
C            6.19631601096816        1.56629251098783        2.88691187080135
C            6.34925784056512        0.21443678025393        3.10367401512692
C            5.65605504736538       -0.68034696660402        2.29762915313249
C            5.67053760532629       -2.14640974311897        2.27933398951140
C            6.34129927216376       -3.05248611113217        3.09120376874350
C            6.19627941112803       -4.40074987722602        2.84760520646860
C            5.40062801010694       -4.87042157526261        1.79530173812127
C            5.26865789152742       -6.32306959887664        1.53729065953424
C            5.52140195740483       -6.84055061433018        0.26103824968422
C            5.40035462562867       -8.18669750847085       -0.00438928678237
C            5.01252644110145       -9.04043366042203        1.01954817438247
C            4.74689836708525       -8.53852387690102        2.29570055921610
C            4.87950551009314       -7.19285647689922        2.55908099233881
C            4.30962465828499       -9.68590891168857        3.21432867145046
C            2.88032904591088       -9.43682330685363        3.75808128790298
C            1.83995679426449       -9.20508477753471        2.66212790233148
C            0.44395816586731       -8.97427020765687        3.21678962532387
C            5.34236251489774       -9.82604333426870        4.36455657164062
C            5.14365331120887      -11.01716231813759        5.30182749441145
C            6.14048890464637      -11.02610242083030        6.45018398861862
C            4.33242309285665      -10.89472193186173        2.27081293794965
C            3.95089591547196      -12.20391914167847        2.48638160549470
C            4.03125720543371      -13.13868086284092        1.45700323735436
C            3.62922099373823      -14.61201532302072        1.65180831228064
C            2.48680385112838      -14.94702496112265        0.67595610015235
C            4.84911192831054      -15.50171543464165        1.35142723556452
C            3.15086174611034      -14.87403353340341        3.11033805300612
C            2.73708625699135      -16.30589155611958        3.41698547292532
C            4.48780622017065      -12.71362848292572        0.20952285201829
C            4.84633056819376      -11.40271503753337       -0.02841348220859
C            4.76457845209867      -10.48689093029946        1.00838386711402
C            4.73124954635025       -3.94930942868388        0.98603165151609
C            4.86302194222029       -2.60126368093867        1.23338701957879
H           -0.19708334481815        0.36542758602608        0.00195135782021
H            0.09761857595098       -0.66259644708265        1.40190425697292
H            0.03515110060549       -1.36857795202202       -0.20547284393466
H            2.17587120301675        0.61086894509806        0.75447953475246
H            2.11988087359254       -0.09581626799498       -0.84018682159346
H            2.31958907919784       -2.40014268031900        0.22800981648113
H            2.47236249426441       -1.63475500306891        1.78387236480846
H            4.17312044880553       -0.48410418142427       -1.43839138248255
H            4.14081024209042       -2.22892383895552       -1.47476185027574
H            6.54996785714117       -2.27401536797190       -0.72657917022518
H            6.57297573740460       -0.53322426912977       -0.70649493371267
H            6.05220193291535       -2.24997128025553       -3.20439569834862
H            7.55083606863535       -1.39302897669404       -2.85357255674493
H            6.07327155524552       -0.49317907438739       -3.18706620633164
H            4.08089306981245        1.49984608996961        0.24517852820133
H            7.26535769295135        3.95553171126317        1.63591612099859
H            6.94914617139323        6.38044323049451        1.27094314892135
H            3.03276857710723        3.38167216929827        1.64993724197789
H            1.20318445718179        5.04036404315323        2.60821630521061
H            0.67963059828189        6.69626325000008        2.43193099649027
H            2.70878752603471        7.47527742444674        3.69793831031231
H            3.22399426015888        5.82324173700936        3.88865577321138
H            0.59361999894298        6.97329756576951        4.98966539481264
H            2.02343759372606        6.60351663005940        5.95018695378142
H            1.11323310259865        5.30566491728809        5.18155316318496
H            1.37389135345253        4.65585883005480        0.13675626204232
H            2.32735369173739        5.70940957568174       -0.86862039635176
H            0.66084795102915        7.53682599248115       -0.60602444743475
H           -0.27650918464984        6.56391952030264        0.49877293208242
H            0.26075219906255        5.85465968418639       -2.44117037700664
H           -1.26223770873891        6.46867885815802       -1.80277984006025
H           -0.68331247994657        4.87339438301141       -1.33103721829952
H            1.19587745939807        8.81118057830990        1.05858900881804
H            3.77373819551534       12.38995007203352        1.96556398692092
H            2.40144225761706       11.80969591421332        2.90354590756741
H            2.24837707541746       13.25437720666619        1.90066133731316
H            3.71652155577018       12.17076464557361       -0.63543912230667
H            2.19561833924482       13.04494221391278       -0.64311801561363
H            2.30251818767441       11.45460534220855       -1.40191067167520
H            0.44488901201198       10.68143583224433        1.75372399508492
H            0.40792104974975       10.52562864750950        0.01053226911944
H            0.11509138417098       13.17061930354492        1.54354240030374
H           -1.18616565363250       12.28641857244385        0.76633179356867
H            0.07799171165119       13.01511016704962       -0.20810357920807
H            4.90898299693718       10.89796413597073        0.75217971073515
H            6.12937487065092        8.77282213190779        0.94142801229815
H            6.71472376727476        2.27345237800766        3.51145871764086
H            6.99533407204182       -0.15475534433485        3.88080647878168
H            6.96212578529224       -2.69523075954977        3.89405766819646
H            6.71128571881264       -5.11711198370177        3.46454097983461
H            5.82363923519524       -6.16371399654346       -0.51979342125195
H            5.59421447856724       -8.58041300920713       -0.98674985100942
H            4.66729996627558       -6.81024404296838        3.54077812285732
H            2.90217694965317       -8.57594043500284        4.43412588440490
H            2.57418588835607      -10.28919343116825        4.37171708599378
H            1.83776656312748      -10.06335997612290        1.97694396739130
H            2.14743144431955       -8.35139277062279        2.04357487042689
H            0.10692210246907       -9.82978701418795        3.80571344758854
H           -0.29098558588545       -8.81054334263580        2.42496080836612
H            0.41940180760844       -8.10193200265029        3.87305416964926
H            5.33327424051971       -8.89993673322211        4.94889738465057
H            6.34287524197757       -9.87773299462246        3.92185905661554
H            5.23009375220586      -11.95022670427999        4.73135408315539
H            4.12032636921848      -11.01206535425785        5.69767638167811
H            7.16741640270140      -11.06732876244104        6.08145431544080
H            5.99518006084562      -11.88170690641999        7.11420245524648
H            6.05264807826954      -10.12221754183920        7.05650498567820
H            3.56668242723792      -12.47761722211852        3.45026444327261
H            2.77920601586828      -14.75422872652299       -0.35551190196077
H            1.60643854332918      -14.34155056607766        0.89099887343877
H            2.20247792124364      -15.99639001592222        0.74085307557414
H            5.22836390805135      -15.32576261755442        0.34556100838604
H            4.59777534035962      -16.55913401888442        1.42174334578412
H            5.65774414553233      -15.29624030805152        2.05269645276564
H            2.31095419408757      -14.20165209767325        3.32134307862194
H            3.95472561232563      -14.57502153235830        3.79339289046505
H            1.90809855466979      -16.63197697486133        2.78696409644357
H            2.41194502682386      -16.41909622703687        4.45427804095574
H            3.55904206138756      -17.00690772540241        3.26383826743516
H            4.55271635154553      -13.42516848115512       -0.59522934506953
H            5.17826900275116      -11.08336065282115       -1.00087122717629
H            4.10743587806379       -4.29267299543994        0.18092333169841
