115
 energy: -23.017592238854 gnorm: 0.000640208740 xtb: 6.6.1 (8d0f1dd)
C            3.02291173174040        1.36782120073936       -1.48421429292273
C            3.99877928779235        0.95838849959070       -0.39277867620704
C            4.10385468880247       -0.55897460428174       -0.24298987336861
C            5.16101564939527       -1.06440556561200        0.77376956280695
C            6.59566347223146       -0.68980369320738        0.32563914394805
C            7.69326111615169       -1.24643424381612        1.22977371957506
C            9.08234555690740       -0.88569012738079        0.73578515932538
C            4.87819683710985       -0.57120809862633        2.19405447879338
C            4.99122731470044        0.69255935319226        2.72720152425406
C            4.74557465927571        0.90125956046026        4.08530611110415
C            4.94016681280605        2.24920451655771        4.66298610495331
C            4.08350774068527        2.77371365937150        5.62690751998699
C            4.29906633696544        4.03492508599800        6.13947487882744
C            5.37143734138381        4.79126709956691        5.70696497642071
C            6.24848563854714        4.29164952782081        4.75577720293909
C            7.42020946327474        5.10427528801706        4.27556690146326
C            8.52212297095891        4.26047171782479        3.69895268027561
C            9.38852064313192        3.57645105187460        4.53767844495723
C           10.31877482284198        2.69871610059576        4.02692043592991
C           10.41246440331430        2.46954654320931        2.65447692927061
C           11.36519347577485        1.48601972198974        2.15558046032937
C           11.60083923015967        1.21593860426681        0.86429077251517
C           12.46769291159765        0.14610994439335        0.38289457275704
C           12.36070264623739       -0.27393729079675       -0.94220715239695
C           13.13160115077380       -1.30614311908133       -1.42771733636169
C           14.03397057244741       -1.94077807582816       -0.59840080655064
C           14.16191751190987       -1.53696737800467        0.71577302428643
C           13.38852638558218       -0.50564972225826        1.20426321015123
C            9.54113159237086        3.16353235433971        1.81667110096085
C            8.61190347844151        4.04056553287993        2.33203996698233
C            6.01262385216891        3.02945641662401        4.24128534339947
C            4.38160200787425       -0.18895986961841        4.88415891191930
C            4.29047388405826       -1.46183400432703        4.36244887622303
C            4.55088670497121       -1.65834568063451        3.01172991688541
C            4.64846259221606       -2.89822737843313        2.23071347199122
C            4.51423417301880       -4.22934341129944        2.60868768557411
C            4.76126947991489       -5.22035828479073        1.68071098873551
C            5.14334068226819       -4.91274602073792        0.36954207418076
C            5.47078432521642       -5.95817508192516       -0.62396194839502
C            4.83155863519690       -7.19432269552953       -0.66958444791983
C            5.12838862203833       -8.09585690059079       -1.67120256081492
C            6.04633601870508       -7.77768765996216       -2.65525925242135
C            6.69543798849897       -6.55282954528944       -2.63899860672059
C            7.64674410356598       -6.13520283540795       -3.73006973144713
C            7.85114684130146       -4.64348058653128       -3.75062256421160
C            6.80374271254453       -3.80892786304477       -4.11742821320754
C            6.87525510692523       -2.44910157210396       -3.90967490040174
C            8.00801032766051       -1.87214483345627       -3.33757823961456
C            8.02146148191060       -0.44582233459440       -3.02995021714258
C            9.12954946264761        0.27301974468010       -2.80086061167839
C            9.14933215890480        1.66295354271763       -2.35805137936385
C           10.32225091877122        2.41284804660222       -2.45487032160051
C           10.36841432481714        3.71469949050885       -2.00646345903503
C            9.24479626083273        4.29985282129329       -1.45812814399730
C            8.07381176093091        3.57628219660444       -1.35557535467089
C            8.02578837001396        2.27243050691543       -1.79770953833758
C            9.07264539137099       -2.70978171282310       -3.00271021453018
C            8.99040397821449       -4.07124837608731       -3.20048622523451
C            6.41821155288468       -5.68010529279411       -1.60296615644379
C            5.25799282280194       -3.57024976763411        0.00030144870331
C            5.02259629639528       -2.58039248602385        0.92377836288776
H            2.94923962327337        2.45330343373324       -1.58350405001701
H            2.02053245558272        0.98653736182987       -1.28041395601474
H            3.32712092618371        0.97123251079891       -2.45483146477391
H            3.69341453760103        1.40006072223455        0.56401705584990
H            4.98865280888307        1.38106242782109       -0.60245775634074
H            4.32474184064130       -1.00548809662521       -1.21822497436456
H            3.12771625625428       -0.96285343331218        0.04575228701314
H            6.68716794967654        0.39896347260885        0.27887070157013
H            6.74926596218437       -1.04806970221910       -0.69679347465362
H            7.58931350374060       -2.33685634156950        1.30450967609556
H            7.54444184325708       -0.87559532786286        2.25265299617642
H            9.27072387309803       -1.30161986255100       -0.25535107076798
H            9.86680860878650       -1.25262940897912        1.40144306754061
H            9.19574439636355        0.19637896478000        0.65504124832536
H            5.29486421650536        1.51354955165576        2.10417012820047
H            3.24313506781047        2.18830935577217        5.95826678660182
H            3.62661365898368        4.43371555777899        6.88151798549623
H            5.53754569569847        5.77614908490029        6.10919565762316
H            7.81773518953203        5.69901076674204        5.10492316326299
H            7.07666486367198        5.82564660254082        3.52664745321433
H            9.30687356128109        3.71939829407349        5.60182726684719
H           10.97591375424641        2.16478014672378        4.69204634290101
H           11.87201620201460        0.90137242422456        2.90149678556466
H           11.08118041405427        1.77992733714835        0.11152415646668
H           11.65201245477085        0.21840230351019       -1.58141850123002
H           13.02994963162514       -1.61829967937713       -2.45453235383840
H           14.63841723292616       -2.74929031267014       -0.97647051197432
H           14.86848311004044       -2.03137545051109        1.36257914063741
H           13.50359713310291       -0.19416837308769        2.22730033278995
H            9.57814300703487        2.99954086734759        0.75559031041125
H            7.92602193521672        4.54659083019436        1.67425454668159
H            6.69198478695308        2.62690616635000        3.51228747301937
H            4.20853152475991       -0.02759803630830        5.93408993302807
H            4.04549819215893       -2.30264233717271        4.98736320984049
H            4.24201021715329       -4.47190376748269        3.62086006861990
H            4.68600805526043       -6.25359282680011        1.97163398336661
H            4.08688073621866       -7.43188735012444        0.07014048881008
H            4.62693263478938       -9.04961313048747       -1.69731825512173
H            6.25657833748932       -8.47431681047369       -3.44883204654685
H            7.26035554827465       -6.46260656868053       -4.70095264977255
H            8.60645381611095       -6.64445288044235       -3.59527508290842
H            5.90434900655470       -4.24649464708077       -4.51678059708334
H            6.04074199264605       -1.81922562416290       -4.16710808903538
H            7.06478874472706        0.04135974394072       -2.96820377431442
H           10.08173106143045       -0.20137510469251       -2.95217546642593
H           11.19412352327546        1.96903939198923       -2.90446669923833
H           11.28295036129038        4.27944982491900       -2.08835139142409
H            9.28216626288470        5.31883357120042       -1.10840628090882
H            7.19617420983651        4.03068328536886       -0.92491376174045
H            7.11259259759989        1.71324497736505       -1.70263151293411
H            9.95045748002540       -2.29259287516174       -2.54105155268412
H            9.79807228099121       -4.71002156946576       -2.88544729751905
H            6.94055850998650       -4.74201132468836       -1.56474680088269
H            5.53704015025568       -3.30029014177233       -1.00168861797872
