100
 energy: -19.126550681640 gnorm: 0.000400790359 xtb: 6.6.1 (8d0f1dd)
C            0.65205170530149       -0.36607442568314        0.05493909336356
C            2.16358499956665       -0.19868524930367        0.04832020372804
C            2.88387546703401       -1.39509259904429        0.66802703573138
C            4.43507549566931       -1.33193099342651        0.66622236208547
C            5.00494555811619       -1.33923843037871       -0.77353417957426
C            6.53184737496181       -1.37529700888991       -0.82901724393364
C            7.06649094852369       -1.38107127176486       -2.25175660889338
C            4.95272710024088       -0.13003370544199        1.46452010510853
C            4.89753964818087        1.21834568626369        1.18548817887266
C            5.46345033828618        2.13836777402293        2.07142774085770
C            5.40089120555872        3.58941589503785        1.78392987254348
C            4.25596939227316        4.15880640727478        1.22777446384191
C            4.19805475098363        5.50917037283155        0.95842868456087
C            5.28083513796851        6.31855883767212        1.23824654781139
C            6.42335539637030        5.77284691983859        1.78833419399772
C            6.48452950989621        4.42275832416981        2.05857032340775
C            6.09166506657624        1.66515564208087        3.22946417537607
C            6.17351680576032        0.31768574684513        3.50314173581393
C            5.60518508286571       -0.58517193230556        2.61431501102996
C            5.60633333113525       -2.05112100664575        2.62545191266538
C            6.13660834065680       -2.94498566108763        3.54673556766822
C            6.02183455357444       -4.29626289948599        3.30595658110461
C            5.39504762283557       -4.78117095469346        2.15139135572561
C            5.28672647101112       -6.23766402546643        1.90937143977701
C            5.68173334692213       -6.78743457479224        0.68354239730712
C            5.58874616862397       -8.14004747851204        0.44052395086617
C            5.08554420636404       -8.96854867507894        1.43534755914472
C            4.67690062949411       -8.43293673584174        2.65917841732962
C            4.78105860598325       -7.08147102069171        2.90119306153575
C            4.13733710292154       -9.55379070647196        3.55446531993037
C            2.65542015487654       -9.29196077293704        3.92314212496035
C            1.75112254259447       -9.08187996505283        2.70840723124977
C            0.30063830948453       -8.83722383447404        3.09011779128035
C            5.03321616535851       -9.65610213614800        4.81754995885212
C            4.71414829092913      -10.80357427234827        5.77512459328632
C            5.58482527003169      -10.77816650295535        7.02171284077600
C            4.26681325754241      -10.78819975597133        2.65455984597768
C            3.86025422391248      -12.08903400587810        2.85850507255267
C            4.05817605829558      -13.04702843640310        1.86135660656159
C            3.62950903313861      -14.44829401619427        2.07461354274715
C            4.42769482643584      -15.51280926210288        1.65804273019741
C            4.02853105492622      -16.81608158793101        1.86204780853721
C            2.82565940215592      -17.08286122505667        2.48482767705297
C            2.02166761815060      -16.04167215332468        2.90367141053595
C            2.41815210031648      -14.73731062424608        2.70169140051759
C            4.65856208981991      -12.65911332707449        0.65794826743344
C            5.04307402311888      -11.35543477196808        0.43512543213140
C            4.84150932107552      -10.41397247813509        1.43583213416473
C            4.86532098729028       -3.87180497091971        1.23267945582134
C            4.96778643727613       -2.52013603049169        1.47454691621722
H            0.14066775523323        0.49449083528637       -0.38270097585723
H            0.27355137877009       -0.49046288541893        1.07151500403618
H            0.35007286778141       -1.25008806717465       -0.51017890487654
H            2.43610729891813        0.71406969637336        0.59239848804733
H            2.51830923890268       -0.04197045165855       -0.97807398999826
H            2.57470824638788       -2.31187614556798        0.15525968658595
H            2.55013900223537       -1.51800711097944        1.70404869601166
H            4.64354475592536       -0.45589525578385       -1.30827290441705
H            4.59646343364491       -2.20031115494679       -1.31233522403494
H            6.89456384853921       -2.25739271471154       -0.28483226001462
H            6.93526101324099       -0.51684789846907       -0.27567761607766
H            6.70313884364773       -2.24863595325660       -2.80616436999264
H            8.15831223534312       -1.40635551880434       -2.28033256087840
H            6.74394055879954       -0.49245671290537       -2.79796286707252
H            4.45091943378344        1.56139323938820        0.27046668081768
H            3.40628029601832        3.53089542171334        1.02112255604120
H            3.30505601054970        5.93487881930455        0.53010330586343
H            5.23420533030200        7.37475425460933        1.02748042003433
H            7.26997219721678        6.40398383730175        2.00524061015738
H            7.38140049786485        3.99625601623599        2.47393358493743
H            6.51470953657809        2.37589514127559        3.91818728433876
H            6.67293909659030       -0.04191776227491        4.38565991207029
H            6.62806000524003       -2.57618105846430        4.42989018851429
H            6.43064580017177       -5.00341604371070        4.00717089272496
H            6.07353903843054       -6.13103483619532       -0.07445999894088
H            5.89285258666818       -8.55872665820431       -0.50272880081460
H            4.45853361789256       -6.67456423338499        3.84219218251169
H            2.60136685040438       -8.41704965007541        4.57895735341165
H            2.27722311148169      -10.13120731121685        4.51417162411505
H            1.82621096454261       -9.95416054973332        2.04551420408566
H            2.13213578979313       -8.24177622706866        2.11268525917801
H           -0.10699746897869       -9.67995699794754        3.65191935173650
H           -0.33487087721676       -8.68801529718429        2.21403728275983
H            0.20279420888905       -7.95198802632190        3.72159011103349
H            4.97298315346380       -8.70618620635821        5.35897833396072
H            6.07573889045848       -9.73642706559530        4.49159099533857
H            4.84154349067103      -11.76089397806681        5.25503815608580
H            3.65528018309859      -10.76614863892305        6.06009374919558
H            6.64363953632175      -10.84910106932083        6.76509647510820
H            5.35527434390227      -11.60278903301079        7.70067412015587
H            5.45082760548384       -9.84827441038896        7.57798870804759
H            3.37823734203795      -12.36622811354925        3.77761131517665
H            5.37190091075526      -15.30527966119392        1.18444144721119
H            4.65775709691057      -17.62872825488135        1.53679636563943
H            2.51475879971040      -18.10273265740549        2.64399761104982
H            1.08133773051062      -16.24936067855815        3.38819399172315
H            1.78517152327803      -13.92579679215401        3.01759632653905
H            4.79709454620343      -13.39620618593950       -0.11409819809362
H            5.48340228768852      -11.05697983703230       -0.50007468890540
H            4.36614352552545       -4.22644227907262        0.34941898608507
