55
 energy: -10.616116671518 gnorm: 0.000769485325 xtb: 6.6.1 (8d0f1dd)
C            0.83447024727648       -0.46150217374609       -0.03961788855210
C            2.34353971164007       -0.50461968527039       -0.22054940245764
C            3.07378263460963       -0.89310414932964        1.06421650012983
C            4.62406100821731       -0.89637225786164        0.99154651736817
C            5.18680600060797        0.51970796789962        0.71477059588667
C            6.71389801444947        0.58462324843377        0.72418307139698
C            7.24408369562389        1.98077627228920        0.44373591229699
C            5.17270051404156       -1.45229751398927        2.30949482755450
C            5.07597119960335       -0.95433197104481        3.58930679322207
C            5.65699198875339       -1.64852277371843        4.64781992521019
C            5.54242383645737       -1.09229294091664        5.99646249117618
C            6.09237047543120       -1.60797710222419        7.16362322173219
C            5.73031776087485       -0.75316514077027        8.19379410420224
C            4.97509479130548        0.25068849169039        7.63247223672576
O            4.85064674417883        0.06165097612984        6.29265865071959
C            6.33048780914265       -2.84763935676846        4.39225427851791
C            6.43194743951707       -3.35085835444293        3.11416648917426
C            5.84870077841225       -2.65027204624807        2.06606576078169
C            5.83276661257567       -2.92890481201857        0.62806143881794
C            6.42132890669061       -3.96181397071013       -0.09011722668415
C            6.32201555152205       -3.95692921947471       -1.46317837376478
C            5.65853133537045       -2.93313252535200       -2.14096374027931
C            5.60706934052050       -2.97010605038473       -3.60273904225979
C            5.01363259050473       -2.03276187812991       -4.43916878580974
C            5.20920945534539       -2.46970824625149       -5.74065604788652
C            5.90924882909625       -3.65158925314267       -5.66323026569401
O            6.16105378994025       -3.97289088198009       -4.36717241705569
C            5.07238118997747       -1.89808832361107       -1.41125934849202
C            5.14504280523235       -1.90728511080307       -0.03554493806858
H            0.31795536252370       -0.18626455638691       -0.96145471618140
H            0.54924569279429        0.26307895082273        0.72546996627756
H            0.44699859789926       -1.43190045490067        0.27661911267574
H            2.70441026957152        0.46944413829235       -0.57297548557968
H            2.59962695916593       -1.21507672559146       -1.01614018564776
H            2.74518870428492       -1.88942989771313        1.37818854920281
H            2.76838873752827       -0.22082744240862        1.87263224669288
H            4.78397564620582        1.21357462784632        1.45926566385114
H            4.81610340360016        0.87238578546207       -0.25188147017467
H            7.11168975978274       -0.12616764931127       -0.01199305030709
H            7.08679467059014        0.22614204842590        1.69256472087110
H            6.91300318692446        2.33966135662477       -0.53248696146075
H            8.33569674187915        2.01491749104535        0.45355047099193
H            6.88644061567212        2.69495217587855        1.18760671112893
H            4.55683986512515       -0.03297876114840        3.77989675616228
H            6.69079481988427       -2.49883830128378        7.25316743632978
H            5.99133035824916       -0.85364035405956        9.23471007996874
H            4.52988067006619        1.08019090108704        8.16818485052859
H            6.77756747563204       -3.38250396605210        5.21120628483313
H            6.95609115103219       -4.26949094031524        2.91818338648423
H            6.95222265711658       -4.74143135382749        0.42695267976534
H            6.76985060497501       -4.74500118315872       -2.04382616781001
H            4.49970949489061       -1.13638800469594       -4.13649012774210
H            4.87862535038522       -1.97774000562907       -6.64097680091637
H            6.22158228279037       -4.25662085488647       -6.50542723536742
H            4.59014186451148       -1.08423824236942       -1.91873205248732
