63
 energy: -11.443061644124 gnorm: 0.000665584972 xtb: 6.6.1 (8d0f1dd)
C            0.70756851117359       -0.21899402185668        0.18817590228853
C            2.21139829431570       -0.41830946507658        0.08642962491806
C            2.94851960954035        0.03772373918965        1.34561468394179
C            4.49742602068211       -0.05611620189453        1.29739962961422
C            5.09019426009765        0.88171256910730        0.21626248108081
C            6.61805802077472        0.89213285478043        0.18182726405474
C            7.17329350602759        1.81902016795963       -0.88731179248832
C            5.05430142253191        0.28770830663330        2.68445969472308
C            4.98673874766744        1.46322373824046        3.40535523885819
C            5.57119701743767        1.51668522846141        4.65826840266528
C            6.21597228209990        0.40915340860000        5.18661486406092
C            6.28766199923306       -0.77047848284474        4.47320057955547
C            5.70017028308761       -0.83034648167912        3.21678255942850
C            5.64840050886215       -1.92813151027062        2.24313780711032
C            6.18968360098159       -3.20519524188374        2.30407149019261
C            6.05731959603095       -4.03950179042285        1.21576020706463
C            5.40679870615917       -3.61839472419911        0.05060324495138
C            5.28578161112699       -4.52238007694844       -1.11649141603756
C            4.92920848219387       -5.85782791766538       -0.95617119057257
C            4.80911177565357       -6.69189620959047       -2.04620441489468
C            5.04226137624304       -6.23303619847234       -3.33632242182513
C            4.89273515687157       -7.19526059295095       -4.52567864962144
C            5.84081732364700       -8.39426991655700       -4.33626930278380
C            3.43706126280924       -7.69177071668531       -4.59665435806691
C            5.23978801641696       -6.51130262226872       -5.86237160537645
C            5.39684795991524       -4.89848454582663       -3.49434006023448
C            5.51585848804969       -4.05851488412659       -2.40828359064927
C            4.87224750224683       -2.32931043166410        0.00093177253456
C            4.97391310229358       -1.49927950764984        1.09651720470665
H            0.18659551156047       -0.55465252341773       -0.71166766555114
H            0.45786086659371        0.83312935729310        0.33936901876517
H            0.29277485324848       -0.77261309654047        1.03291859396285
H            2.59981000110542        0.12146403215810       -0.78616810267198
H            2.43173736714581       -1.47585069758384       -0.10420484033605
H            2.59700461285676       -0.54849284727430        2.20134913104254
H            2.67358221744869        1.07300116067149        1.57241915531198
H            4.71814058263332        1.89742282990735        0.38527678698692
H            4.70931163215664        0.58525546302987       -0.76546650508463
H            6.98392982243931       -0.13120567135211        0.02392893103279
H            7.00178973039941        1.18038795247484        1.16944925494395
H            6.82926372977534        1.52562136573088       -1.88111171549618
H            8.26568780797253        1.81883850446576       -0.90403930291033
H            6.84738974080989        2.84841273503977       -0.72509733041767
H            4.48509516258777        2.31946109713734        2.98895165617439
H            5.52460147680557        2.42997008198121        5.22891510255268
H            6.66757168612090        0.46989492339367        6.16351635021860
H            6.79017962562456       -1.63415346619489        4.87229308986960
H            6.71053206122481       -3.52433602578980        3.18982220393534
H            6.47882400467002       -5.02954322668218        1.24476091758098
H            4.73252375487820       -6.23045895445525        0.03458976686435
H            4.52369918313310       -7.71880550752676       -1.89624773844563
H            5.60130686735562       -8.95150239286943       -3.43146949236049
H            6.87486173168675       -8.05878811228180       -4.25898057343570
H            5.77175307085163       -9.08303301250573       -5.17819988316254
H            3.15687724475183       -8.22771023029506       -3.69047548444369
H            3.29538686610947       -8.36664165696827       -5.44073565137296
H            2.75014480808180       -6.85392515544183       -4.71548320825101
H            6.26685968836450       -6.14661999776958       -5.86127933435540
H            4.57338995835225       -5.67175060325294       -6.05951911125601
H            5.13972239944062       -7.21141712610895       -6.69183745315534
H            5.58427102667563       -4.50707666204813       -4.47845127461658
H            5.80117586677859       -3.02996399936686       -2.54963357625144
H            4.39192059619122       -1.98475700999570       -0.89615556486526
