119
 energy: -22.063064729077 gnorm: 0.000244402371 xtb: 6.6.1 (8d0f1dd)
C            0.90718099733984        0.15301951522941        0.42552602872604
C            2.41815774429501        0.22683924453823        0.58242603612249
C            3.08188439344063       -1.14549883016823        0.47948955863827
C            4.63188053669479       -1.16088383951551        0.56739036981897
C            5.27732531522781       -0.41279116598353       -0.62504199865715
C            6.80399775148498       -0.48253297221968       -0.64023228922506
C            7.41236792232917        0.25979685246438       -1.81877941943676
C            5.13052992003450       -0.60776083698405        1.90828476433626
C            5.11882112983581        0.67883333869879        2.41096459237047
C            5.66123326962337        0.91923310499689        3.66082450454657
C            6.22168209709271       -0.11021843177217        4.40005243186532
C            6.26030537396114       -1.39511905156918        3.89806680184780
C            5.71564276700767       -1.64196863943639        2.64504346471353
C            5.68792404986991       -2.87902044617203        1.85564107034408
C            6.15847022164387       -4.14994878927137        2.15747434946105
C            6.02866858824050       -5.14873500268945        1.21783122989328
C            5.44725068469696       -4.90334706543634       -0.03201667497157
C            5.31100520784600       -5.99516065237503       -1.02342362215124
C            5.78898654160001       -5.83900636497323       -2.33034139506979
C            5.66890905853310       -6.84565232423715       -3.26333389242149
C            5.05296866648642       -8.03501443855652       -2.89417705827128
C            4.56013775985959       -8.19936283041670       -1.59695052917887
C            4.69295688307859       -7.19519970822997       -0.66463540345766
C            3.90515944812029       -9.57846277444921       -1.46791246214237
C            2.41682292999323       -9.44486267653214       -1.06018162699385
C            1.60469454906013       -8.54797616542541       -1.99443701979240
C            0.14755090156651       -8.43334378661334       -1.57836596362990
C            4.70923540633872      -10.41511944236657       -0.43702494218988
C            4.28761534615829      -11.87632182904554       -0.28687691742623
C            5.08392517231440      -12.60304630741495        0.78565543058996
C            4.03937659143380      -10.14152458662198       -2.88651328085466
C            3.54766934748421      -11.30627381996288       -3.43290183810497
C            3.80366055086323      -11.60813385627161       -4.77211477985016
C            3.29198756860154      -12.86852735108487       -5.35857684381446
C            1.93093251855612      -13.18716490882667       -5.27848800987169
C            1.43825906292568      -14.36500368335179       -5.79564301530044
C            2.31803177317981      -15.25250133017121       -6.40105205748671
C            3.67940196429574      -14.95160620484887       -6.48205267800448
C            4.16610238606057      -13.76762696154849       -5.97371567726250
C            4.42154306868786      -16.11302716810190       -7.15289348831026
C            5.49180724388202      -16.69780662723996       -6.19704478712469
C            4.93671459385564      -17.10366319949051       -4.83140943835634
C            6.00208841868414      -17.67233173675378       -3.90880433864139
C            5.05222908130035      -15.60156952826459       -8.47537915636913
C            5.74825316289659      -16.65442041450235       -9.33689374079034
C            6.40197601926383      -16.05418954994640      -10.57186940921950
C            3.29707730210639      -17.12560970424641       -7.40489282004447
C            3.34108337895654      -18.41477988128119       -7.89939645933628
C            2.16704231929608      -19.14024857268637       -7.99709588458188
C            0.95990000706447      -18.59263145926393       -7.59327999040442
C            0.90723747217718      -17.31550197450287       -7.07323236440967
C            2.08228506749832      -16.58244701397375       -6.97530025816788
C            4.54775532514961      -10.70814478033445       -5.54403095602639
C            5.00853802353747       -9.52269064732780       -5.01508446023557
C            4.74795732300298       -9.23415173995687       -3.68115509942982
C            4.98161504151731       -3.61932432929100       -0.32511074383141
C            5.09829381617628       -2.62045671898941        0.61612654347837
H            0.43538059506124        1.13417819454620        0.51788121717535
H            0.46322563179349       -0.49725580291374        1.18203079400753
H            0.63056483996957       -0.25353017217538       -0.54936623791701
H            2.66761222109054        0.68148509205993        1.54921245629356
H            2.83972089890207        0.90174035733587       -0.17303553958933
H            2.78467708328789       -1.62365956945601       -0.45973999841679
H            2.68966764034625       -1.79491975040133        1.26963056803111
H            4.96271034299515        0.63484224029528       -0.60594147934896
H            4.88075539447260       -0.82484736229858       -1.55867387247371
H            7.11993357938156       -1.53416758249088       -0.65125071783171
H            7.19504452264014       -0.08073091557303        0.30398670771386
H            7.06182621772817       -0.15160624148070       -2.76747061581449
H            8.50354863946073        0.20547682098696       -1.81996331563730
H            7.13599720113094        1.31600279987514       -1.80492447095552
H            4.71239849018976        1.48352597075565        1.82362895888568
H            5.65196597262582        1.91988064804299        4.06150618046499
H            6.64086566063095        0.09584995088970        5.37153158603850
H            6.71132065872926       -2.19795762132238        4.45464178468764
H            6.61486159665782       -4.34007530399891        3.11304846488097
H            6.38737600229599       -6.14039646587834        1.43447033413911
H            6.26521296532519       -4.91144464607335       -2.59837147809737
H            6.03518994095786       -6.72116161758917       -4.26728379912671
H            4.30739937025721       -7.32641833077018        0.33000273258444
H            2.36203081972280       -9.05779307490839       -0.03755848768742
H            1.96145190979546      -10.43901029479657       -1.02656995368936
H            1.67685960257225       -8.93302586229770       -3.02037816920328
H            2.06609423681519       -7.55227403523370       -2.03436124522920
H           -0.33820617587286       -9.41113030070150       -1.56909519047507
H           -0.42258494484955       -7.78922920400598       -2.25200137883872
H            0.05612274053959       -8.01919537203101       -0.57225656704805
H            4.64603764750751       -9.91680126871959        0.53599578823081
H            5.76794324193242      -10.37229768415432       -0.71463819287813
H            4.40656201643309      -12.39209337019940       -1.24779360798750
H            3.21593992102379      -11.93220361052419       -0.05816504556555
H            6.15218245166438      -12.59122682325664        0.56013834869909
H            4.78093154005584      -13.64804861122510        0.88565798247628
H            4.95640006995496      -12.12949827357292        1.76117772338071
H            2.95906357206356      -11.98032381063723       -2.83805580519884
H            1.26427197819810      -12.48806186616046       -4.80322266294913
H            0.39247767908397      -14.60861566903561       -5.72807837361659
H            5.21639285832245      -13.54610152182356       -6.02811263732284
H            6.29063069051861      -15.96082471298281       -6.06523752267819
H            5.96208479782087      -17.56541585052734       -6.66912316021943
H            4.12729562351625      -17.83257624115456       -4.97094840426904
H            4.45544688564546      -16.23536597921226       -4.36196578562206
H            6.46766825051495      -18.55930862376108       -4.34302745536011
H            5.59353781267017      -17.95794134514607       -2.93654754996399
H            6.79760232590526      -16.94614488540767       -3.73013226628760
H            5.76429840101264      -14.80620540838201       -8.23127441565287
H            4.26659936982591      -15.11457218414058       -9.06295830921935
H            5.02225810722420      -17.41962757955665       -9.63784657163342
H            6.49944853936978      -17.18589583037091       -8.73922594444749
H            5.66697675795545      -15.54855559295144      -11.20130385912218
H            6.89464996630855      -16.81191577346648      -11.18582170264450
H            7.15541236180073      -15.31258836042849      -10.29886186450814
H            4.28278204767863      -18.85404572287121       -8.17812898940319
H            2.19322525364224      -20.14519251656590       -8.38613362959892
H            0.05528974363515      -19.17305300645030       -7.67540079442108
H           -0.02132072292582      -16.88807673426004       -6.73733395936120
H            4.73895816150134      -10.94786302306598       -6.57598676828994
H            5.55672315179103       -8.82001371758824       -5.61786421542301
H            4.51931678146125       -3.41716688602740       -1.27408400256613
