41
 energy: -7.478707554925 gnorm: 0.000735904470 xtb: 6.6.1 (8d0f1dd)
C            0.77076063581926        0.49772220971023       -0.05374246174255
C            2.27396602086331        0.61271326054652        0.14542518444307
C            3.03374261872036        0.69211024723381       -1.17811538167658
C            4.58085372329258        0.76436491423000       -1.07176722521900
C            5.16628581625718       -0.50246879291762       -0.39947100168030
C            6.69413734864227       -0.52731463049035       -0.36022382856525
C            7.24306938353849       -1.77862631096778        0.30559199998177
C            5.15849805425469        0.95076811652448       -2.48026455103345
C            5.10819637901363        0.11711180465211       -3.57978222355656
C            5.70392025895651        0.52639835197743       -4.75935583740423
C            6.34149670877636        1.75437511076992       -4.84121755675020
C            6.39558253334872        2.59404800925675       -3.74662080554759
C            5.79778229383706        2.18914592929909       -2.56123509938724
C            5.72753160093124        2.85599372078674       -1.25338633835872
C            6.26699384243615        4.06564266321872       -0.83827171356013
C            6.12310532346460        4.44230717908642        0.48167812542696
C            5.46459569369797        3.62004986780974        1.38169384182150
C            4.92782926165477        2.41204886573674        0.97384624890632
C            5.04324032931651        2.03696931478211       -0.35081148019867
H            0.23430933668895        0.43089891913507        0.89555995561783
H            0.51606609498412       -0.38832425638809       -0.63820107362592
H            0.37674079071139        1.36184748145193       -0.59209967648266
H            2.63817900662997       -0.24067783588498        0.73165702457469
H            2.49905752886391        1.49912108859578        0.75133155408949
H            2.68952476978902        1.56634532226759       -1.74087416150376
H            2.77123697493318       -0.17169296841225       -1.79771159408063
H            4.79676300419867       -1.38740789932259       -0.92763727316144
H            4.77789445030058       -0.58098355277694        0.62025225735342
H            7.05826789609266        0.36917640392870        0.15900122835580
H            7.08562757994947       -0.43987643738419       -1.38238167830809
H            6.89183694929249       -1.86377743488599        1.33584180064699
H            8.33532512234664       -1.78610349465165        0.32877748662385
H            6.91956701332641       -2.67933440562601       -0.21989092518838
H            4.61191692009004       -0.83520515632340       -3.50956047262867
H            5.67169372043184       -0.11714432329817       -5.62347596771426
H            6.80137562444966        2.05603636243127       -5.76828553618700
H            6.89261458489334        3.54685572680396       -3.79971200077661
H            6.79441785222696        4.68767055865551       -1.54012797069850
H            6.53629858327135        5.37939197837259        0.81790553533793
H            5.37392176494088        3.92184090760911        2.41253541140536
H            4.44877660476599        1.75780318445849        1.68091618045248
