106
 energy: -21.563919032845 gnorm: 0.000941439141 xtb: 6.6.1 (8d0f1dd)
C            0.81509782813843        0.36745547440019        0.99237870843857
C            2.22886504696250        0.90133931444661        0.83733607375793
C            2.60636514555173        1.16726343670016       -0.62075710648172
C            4.00358542158152        1.67278815037606       -0.77220043916461
C            4.37603645522988        2.93676190120970       -1.14715524745503
C            5.79836487602881        3.01151748226643       -1.11720681515162
C            6.64585506902020        4.07272989947324       -1.47098649286664
C            6.12016659985192        5.40324761810389       -1.85949851156241
C            5.51577020697248        6.23802343096489       -0.90042338793550
C            5.37757170159688        5.79609101902928        0.51520430800772
C            5.03853644887971        7.47706375839095       -1.28494578128314
C            5.15260444527643        7.92845224126846       -2.59035284422800
C            4.67025783134257        9.28492371607785       -2.97033886871435
C            5.76512858845811        7.10753275048543       -3.52400851659189
C            6.23716584511251        5.85249926252609       -3.18868667153743
C            6.88219652177927        5.00260051442331       -4.22791514449976
C            8.02394259994302        3.81081464955076       -1.42359920616905
C            9.11975638947862        4.70376873878714       -1.59960179153684
C           10.27940786090231        4.01003021198709       -1.37599832187168
C           11.66858769821049        4.53983032306287       -1.51326774623469
C           12.36774056729387        4.03284149229147       -2.77576438581372
C           13.80086166330872        4.52352889470436       -2.89357816127658
C            9.93926133014889        2.64261127152621       -1.08313393819114
C           10.87216224474552        1.56265218279199       -0.75746338986516
C           11.70081717671891        1.66759678039224        0.37436305847678
C           12.62365099084271        0.70813985039542        0.68544667144682
C           12.79383187704887       -0.42260047066140       -0.12982597689194
C           13.75135789357622       -1.43205391481049        0.16528619860676
C           13.91056560752077       -2.50961735378867       -0.64254807473800
C           13.12545321348795       -2.66979944251505       -1.82235573445288
C           13.27291384812811       -3.76672935343430       -2.67629390321910
C           12.49825330331746       -3.88707906199459       -3.81179684348922
C           11.56176552380287       -2.92699718912018       -4.13191314725899
C           11.37449091004853       -1.80920732420156       -3.31214503501331
C           10.41857303077285       -0.79576184599500       -3.60898493043230
C           10.25839350804587        0.27333166216912       -2.79118959069844
C           11.02247145377561        0.42863808728009       -1.60585465185065
C           11.98870781912667       -0.55495071017040       -1.28743146641674
C           12.16242231694151       -1.68072457888345       -2.14204211567113
N            8.57663324014665        2.58522429181025       -1.13214324990224
B            7.71616780737485        1.37772902827875       -0.73128812163206
F            8.13726334959122        0.96952780975979        0.52899944444074
F            7.83642814969268        0.37313077612575       -1.68514051740306
N            6.23345729154672        1.77819047535682       -0.69002372884703
C            5.19392962271452        0.92234974246953       -0.47002200638604
C            5.26407091859604       -0.47604071069780       -0.04245589007111
C            4.78558671542947       -1.49636920935003       -0.88404814978747
C            4.78085845015853       -2.80770070099192       -0.49724635256164
C            5.24040051344101       -3.18817213737428        0.77427496576116
C            5.23761333334245       -4.54322706395056        1.20664752652442
C            5.66976735694433       -4.88820735865538        2.44496323613792
C            6.14090075159263       -3.90387650217008        3.36327579223541
C            6.58433822856201       -4.23012585348462        4.64823257804136
C            7.03121428115242       -3.25053218990822        5.51116611260914
C            7.04997267681404       -1.92651978916587        5.12663834627712
C            6.61639046641570       -1.54556959546527        3.85246587403228
C            6.62050847862463       -0.18889054333707        3.41807445875922
C            6.19597907282194        0.14694006129901        2.17531829231622
C            5.73736337924157       -0.82969315070716        1.25346692471473
C            5.71437921213417       -2.18599741488973        1.65559960200512
C            6.15931344546273       -2.54578696137212        2.95954784776455
H            0.55778420114464        0.18375125263600        2.03790227777124
H            0.68768571375427       -0.57296043901851        0.45303905506959
H            0.08166765069967        1.06977790904148        0.59208075690506
H            2.94832341869011        0.19595467665520        1.27361902783746
H            2.35388991659635        1.82618220917004        1.41577571573528
H            1.90835855036282        1.88791093687430       -1.06156600443426
H            2.48918849057634        0.25022484674193       -1.20869215983907
H            3.71181191084916        3.73359935509652       -1.43207842053511
H            6.21131036158673        5.15788953001586        0.81064724511687
H            4.45547572785242        5.23152759011987        0.65770396209909
H            5.35863731067740        6.64877004380357        1.19500616092838
H            4.57383545679528        8.11131701762699       -0.55083492241614
H            3.81005824662142        9.57998001536418       -2.36793284330641
H            4.36688156165623        9.31616304183889       -4.01766085755589
H            5.45433813571909       10.02915359237409       -2.82485712773445
H            5.87312732510946        7.45561606285939       -4.53607584663522
H            6.45246098643313        5.19030417803009       -5.21264668224001
H            6.74957933864866        3.94253949621369       -4.00799761940402
H            7.95281951895115        5.20272892696474       -4.28351614499587
H            9.04495691148284        5.74794914034178       -1.84758329790472
H           12.25097343114043        4.25960523549839       -0.62865520264002
H           11.64378882501198        5.63543483719449       -1.51176948746144
H           11.78529520559636        4.33513960653644       -3.65643435805511
H           12.34263402555669        2.93473161792131       -2.78474104170448
H           13.84392744389698        5.61464853115685       -2.91094353330586
H           14.28685843233468        4.15950560364840       -3.80193284718178
H           14.40105588425583        4.19182123166380       -2.04391325774204
H           11.58012529418403        2.52375365462123        1.01546857975645
H           13.23535586991412        0.81077479900051        1.56509439035481
H           14.35507493967260       -1.32594943236460        1.04998099571398
H           14.64011758658592       -3.26380080258523       -0.40331503364874
H           14.00220124368945       -4.52106132282242       -2.43630624377838
H           12.62682299108982       -4.74145965503149       -4.45604583562364
H           10.96209501863965       -3.02994610564775       -5.01976330966825
H            9.80967256894288       -0.89978150346228       -4.49024296551604
H            9.50272583437717        1.00884859971230       -3.00343794615441
H            4.43422167504269       -1.22440302816832       -1.86441963875802
H            4.41990239062141       -3.56803493422702       -1.16811475883104
H            4.88298639021327       -5.29908796282755        0.52743644963172
H            5.66084551927649       -5.91881170671522        2.75493575156836
H            6.57301227692234       -5.26067463720988        4.95857839713525
H            7.36952313177042       -3.52350877375493        6.49738911664047
H            7.40155626101730       -1.16985280739290        5.80655652548419
H            6.98318093252781        0.56926350837360        4.09026657169229
H            6.24791249271608        1.16848019119073        1.84235264241982
