85
 energy: -15.444097170607 gnorm: 0.000657186506 xtb: 6.6.1 (8d0f1dd)
C            9.35795815288809        0.33767737624708        4.59905242842670
C            8.06408841021555        0.65124096183591        3.86466352323189
C            8.28798639131236        1.41755710557887        2.55595399822834
C            9.07891796417883        0.63889465231551        1.55296417986238
C            8.58838267496629       -0.33820195897904        0.74293124485872
C            9.69566002466173       -0.83993086262848        0.00250545887133
N           10.81789653240624       -0.20206462744790        0.35519284483233
C           10.49881319590493        0.70642663030912        1.29414165677179
C           11.39843068499625        1.59141940335713        1.94752232070554
C           12.75108721406323        1.78340548122979        1.78886764102447
C           13.68303369727706        1.17320499677288        0.91116345145251
N           13.45287408948869        0.17875814761497       -0.00291843594748
C           14.59693166879512       -0.19232326421826       -0.64670972459504
C           14.60492439900610       -1.25685181674189       -1.60823145135964
N           13.47201652412012       -1.88071686077154       -1.95547624493825
C           13.77680566850820       -2.83809173143000       -2.85167950716392
C           12.87825324958105       -3.73342646527666       -3.49680844827840
C           11.51984110890912       -3.91092366274985       -3.37027614628686
C           10.58408438049949       -3.26361873606833       -2.52678814214794
N           10.84042695592533       -2.26909328084522       -1.62001602195858
C            9.70202823886135       -1.87306587750540       -0.98471266784510
C            8.64759846147476       -2.65539483091702       -1.50710770766923
C            9.17847050105511       -3.51444555367588       -2.44542900621129
C            8.40157838840531       -4.48015345048699       -3.28118802133323
C            8.06713970929286       -3.92668988589107       -4.66700012828205
C            7.29074062136146       -4.91267205373097       -5.52434524829855
C           15.19898277999231       -2.82826078267131       -3.08566956964403
C           15.95083052171122       -3.74140789396795       -4.00562120145233
C           17.46690121636679       -3.53150001247793       -4.00283702601140
C           18.19192129377240       -4.47741268238012       -4.94644327378241
C           15.70603945661777       -1.83738467547191       -2.30342977491102
C           15.63648873211398        0.63489333853725       -0.13108142186359
C           17.08753673268284        0.58955890014489       -0.46343974053980
N           17.88133443745513       -0.14678816196669        0.54503457275536
C           17.43292695408553       -1.52918341279057        0.82746325790180
C           19.31336230699779       -0.07611098860835        0.22892481305478
C           15.07727588282945        1.46571491420149        0.82434013746692
C           15.83525008846891        2.42234675801291        1.68886143301709
C           16.42809007168202        1.75048959725985        2.92732960750188
C           17.22497378129579        2.71059923860823        3.79445576943322
H            9.18143124813052       -0.21690073878080        5.52381635153679
H            9.89523932349923        1.25093466997972        4.86194273633771
H           10.02757211504362       -0.26251034099483        3.98011230286118
H            7.39186796969251        1.22135627127737        4.52093856132017
H            7.52781676179686       -0.28115779828616        3.64381658964692
H            8.78948396640415        2.36895891177098        2.76091455821398
H            7.32570258840511        1.69044224555598        2.10567232369761
H            7.56655415276110       -0.67068582343203        0.67881204115841
H           10.93005936972567        2.21402671981867        2.69226092613722
H           13.18910480980715        2.52640445960534        2.43579454929831
H           12.53304400709309       -0.23154892127242       -0.13620412823521
H           13.36156841275680       -4.38392722659555       -4.20852496679639
H           11.08562007988033       -4.66919449812473       -4.00207546696849
H           11.77029744421753       -1.88305295033598       -1.48712809391840
H            7.61063097981501       -2.58462454738747       -1.22799983792740
H            7.47814876196545       -4.75073737342620       -2.75626433699278
H            8.96434680574895       -5.41566424826600       -3.37547509319376
H            8.99655648768316       -3.63331337904975       -5.17285935988549
H            7.50146176933196       -2.99222312386080       -4.55392745934265
H            7.85660224801170       -5.83376237994216       -5.67693159636309
H            7.05626491185796       -4.50418224069932       -6.51004091931744
H            6.34693614366236       -5.18980265480536       -5.05080581674530
H           15.56668500977662       -3.61354056344651       -5.02416772364462
H           15.72702289542118       -4.77981046333428       -3.73523964104641
H           17.84726559721705       -3.65306626771453       -2.97988923528815
H           17.68858630770214       -2.48952220791551       -4.26926404953925
H           18.01129538133290       -5.51974724449847       -4.67656683830797
H           19.27270663100280       -4.31830065554519       -4.93753760800877
H           17.84960869518944       -4.34803830849715       -5.97499849355331
H           16.74442880922756       -1.57780948975362       -2.21536584897996
H           17.47664128867356        1.60876689860159       -0.53111050314575
H           17.24609889990392        0.14791790135612       -1.44729813425574
H           16.37811361344679       -1.53286174207878        1.09489095803177
H           17.99951518225608       -1.94426539671898        1.65859305338721
H           17.57548844755069       -2.16307750992714       -0.04510465966136
H           19.62730688567581        0.96125755687104        0.12684054366592
H           19.52480072766665       -0.60047400081526       -0.70135636440452
H           19.89611541243290       -0.53158869709441        1.02735835331449
H           15.18352135980502        3.25115676407877        1.98551422306575
H           16.63419926663456        2.88873882235214        1.10218449993765
H           17.06158826590057        0.91148525753169        2.61092784385701
H           15.61941134806165        1.28973524348679        3.50992481370674
H           18.05380846212009        3.15002996163266        3.23619197736836
H           17.64612026265935        2.21730686991407        4.67341066771642
H           16.60164772889109        3.53457826645554        4.14684887238450
