114
 energy: -25.035509976323 gnorm: 0.000513574563 xtb: 6.6.1 (8d0f1dd)
C            0.97327081822173        1.30379342469317        1.26419731092987
C            0.14096899596447        2.03203707143780        0.50328049107028
C           -1.28613407169667        1.78902996068879        0.34138664036100
C           -2.04911742700181        2.67967405603093       -0.41113068577871
C           -3.41546590094855        2.49296801683696       -0.60750514687419
C           -4.16433890519440        3.44846851170504       -1.41273358159110
C           -5.49824460961795        3.45278291369422       -1.56334240833136
C           -6.25456447894903        4.38475338203007       -2.38253507901354
C           -7.65131590322732        4.32907360229807       -2.37205397660947
C           -8.40046240757477        5.18408198084620       -3.14235747228335
C           -7.78520787380728        6.12916173388182       -3.95697865700508
N           -8.56909425364994        7.01404762479822       -4.77046406740473
C           -8.40374691909538        8.41183753516494       -4.88097569343238
C           -7.51004637712812        9.27953647010090       -4.25433047428695
C           -7.58229742049743       10.62156766930350       -4.53755127216669
C           -8.53338660019135       11.11884418382045       -5.43254384588514
C           -9.42806680783166       10.27917535798003       -6.05169203295948
C           -9.36684615288990        8.91334795873236       -5.77289021703940
C          -10.15300330128354        7.79209237534809       -6.23182873155769
C          -11.22616584827632        7.69808419146764       -7.11875620708042
C          -11.76741886961429        6.45983644125836       -7.36920826046094
C          -11.25504479054640        5.31404282776345       -6.75490129599900
C          -10.20039860728483        5.39183306656344       -5.87854135299853
C           -9.64594757983514        6.64164015406765       -5.60439659790958
C           -6.39522443997665        6.19220142899314       -3.97253186272040
C           -5.64334683832453        5.33811112315347       -3.20237646551871
C           -4.01467048027407        1.37473373030707       -0.03256057735332
C           -3.28625514517275        0.45811148596875        0.72233419001767
C           -3.96983899545300       -0.70028221049141        1.28061878163220
C           -3.39324067352269       -1.68377239937862        1.98895779591276
C           -4.08194107236398       -2.84751594882499        2.52231609014780
C           -3.35016937807110       -3.83714135747398        3.18534654501892
C           -3.96607494067998       -4.95753493826154        3.68745084349807
C           -5.33917094759071       -5.13456554027120        3.54981130183149
N           -5.98259368512789       -6.31199640581489        4.05932936933756
C           -7.16380584402628       -6.34964063454283        4.83176824737700
C           -7.96068900476356       -5.32158319045399        5.33419666661397
C           -9.06655091152333       -5.64650157674927        6.08126439320330
C           -9.39350694924260       -6.97999992464514        6.34181533831949
C           -8.61418906714397       -8.00536710696659        5.86202949384098
C           -7.48666888308914       -7.69011288305127        5.10274280381346
C           -6.47637573436340       -8.51028307066917        4.47614254671930
C           -6.30116070424536       -9.89278746527780        4.40400903534696
C           -5.22827143858438      -10.38533495338664        3.70028758360631
C           -4.33028366806345       -9.52437259768842        3.06362226298319
C           -4.48996169879866       -8.16164798006439        3.12668296020699
C           -5.56718914845737       -7.64433425005368        3.84522414950571
C           -6.07608216564312       -4.15105337284158        2.89790275814333
C           -5.46227608446676       -3.03035030692841        2.39363308004479
C           -1.92274150865903        0.68248877048311        0.90052108005879
C            2.40175471336926        1.53146575827669        1.40656929080759
C            3.14626932333040        0.71387230164811        2.26202548344863
C            4.50044179124811        0.88936261841098        2.41030816321715
C            5.16762401813372        1.88788601697946        1.70792235271906
N            6.58547455830988        2.06113561224909        1.84829619415530
C            7.51438082659581        2.19621040719537        0.79348486462868
C            7.33710086566364        2.17704246436087       -0.58952848800980
C            8.43711774778503        2.31762071823292       -1.39991400091217
C            9.71581021243525        2.47345363950924       -0.85810711885149
C            9.91007606244034        2.48525391683244        0.50241134474788
C            8.80149385716802        2.34244180684793        1.33777866299225
C            8.66719910440408        2.29870626903518        2.77506044120384
C            9.59957759182089        2.40216905295162        3.80803095386266
C            9.15436318443416        2.33668614881308        5.10658848695660
C            7.79622578761471        2.17404095340281        5.39292952213589
C            6.86752192606377        2.06941411490192        4.38633964602099
C            7.30283608272918        2.12420349095814        3.06277283789126
C            4.43366998059772        2.70837244266791        0.85708108725516
C            3.07882011183587        2.53596683658103        0.70838101093223
H            0.57139883024497        0.47904905330456        1.82319502217197
H            0.53917144149138        2.86846501232313       -0.04072233348005
H           -1.57012913950961        3.53556531947683       -0.85219215105921
H           -3.58541864462605        4.20342869096808       -1.91174746681845
H           -6.07674334473142        2.71697266745380       -1.03585728274301
H           -8.14048226393240        3.60292491358602       -1.74548020267280
H           -9.47533722940479        5.14492294239878       -3.11370103611903
H           -6.79043676723869        8.89308323550720       -3.55517996159195
H           -6.89702451811909       11.30302888387522       -4.06060638487073
H           -8.56739679818721       12.17644022240390       -5.63659261702443
H          -10.16733535898865       10.65400994781684       -6.73738586894379
H          -11.61050481421353        8.58479188807432       -7.59116933550008
H          -12.59656295743398        6.36998238007277       -8.05159068907498
H          -11.69368184406437        4.35449479677029       -6.97480911481409
H           -9.79316674342855        4.51199478500155       -5.41383248560997
H           -5.91716203326819        6.90892136020137       -4.61717209175745
H           -4.57061905017822        5.39808216414077       -3.24321065138332
H           -5.06274710251087        1.19468117486556       -0.18210291748563
H           -5.02424781477769       -0.75966168417767        1.08450511834877
H           -2.33676192669780       -1.63396263500443        2.17632634472773
H           -2.28672270369281       -3.71297428576441        3.29836795921561
H           -3.39620899097478       -5.70748073318473        4.20760663939437
H           -7.69605161834689       -4.29732724490072        5.14203479421159
H           -9.69113465720907       -4.86150930842671        6.47517779890661
H          -10.26750023615942       -7.20631106425110        6.93025989070001
H           -8.85571370087748       -9.03446141436750        6.06174086399104
H           -7.00137658412349      -10.54822607849895        4.89119710497218
H           -5.07843125993922      -11.45051321346434        3.63481794348693
H           -3.50130156248347       -9.93717083781180        2.51237108868874
H           -3.81080539724647       -7.49479867992082        2.62667537490786
H           -7.13575538853260       -4.29366395567537        2.77710482754180
H           -6.05598309480870       -2.28737655438620        1.89240459005246
H           -1.34779328452931       -0.01877583902967        1.47245237019339
H            2.64358324825057       -0.06747725227493        2.80602205854497
H            5.06754385463563        0.24226162665719        3.05633769850179
H            6.35286540037305        2.04224871784076       -1.00074134869583
H            8.31357274617220        2.30502492125594       -2.47045249298085
H           10.56136154804319        2.58162936753080       -1.51740049429581
H           10.89144791508176        2.59872338945683        0.92815661863698
H           10.64228804357503        2.53283922081427        3.57796355305767
H            9.86137896473547        2.41496724314138        5.91608237251171
H            7.47340469423210        2.13281597165485        6.42032818694152
H            5.81981020028496        1.95800584151434        4.60047089595127
H            4.94517218104537        3.49251231693919        0.32666843153103
H            2.53658471564079        3.18333922057542        0.04302284743278
