81
 energy: -15.150676809773 gnorm: 0.000420965640 xtb: 6.6.1 (8d0f1dd)
C            1.88893820678920       -4.15192210756285       -1.91323154431247
C            3.20050310829200       -3.50545305158419       -1.49963573101250
C            4.19193366946064       -4.50318342739382       -0.89925501792506
C            5.48304617168754       -3.86347759596900       -0.50117614667091
C            5.81730345140506       -3.42635151532514        0.74823018646416
C            7.09565295552639       -2.82116127002551        0.62952888298952
N            7.51788414770065       -2.88334482952393       -0.63913867885231
C            6.57298175036384       -3.49624876325474       -1.36344509088462
C            6.61872280741658       -3.74387356445772       -2.77400296090693
C            7.53253090211090       -3.35807135147498       -3.71421002383945
C            8.73292033207935       -2.59225869893335       -3.58147871040134
N            9.33987301206496       -2.18958081577740       -2.41866190352781
C           10.43704503808863       -1.42153535065894       -2.67263971284541
C           10.56622171450093       -1.34534938388104       -4.06717509857039
C            9.52893624728329       -2.07139785230395       -4.63425374637713
C            9.32000047463262       -2.29139709941947       -6.09816541220980
C            9.88013192604279       -3.63059796947247       -6.57913301338585
C            9.66217723919540       -3.86231921629544       -8.06515429537014
C           11.18705058237260       -0.77156546683739       -1.62145269777354
N           11.11156058577269       -1.16660205592803       -0.34471017329830
C           11.77734908155634       -0.26573772776852        0.39730678718291
C           11.95145417825675       -0.31465673142154        1.84881097064152
N           13.17563159927455        0.06523675109297        2.37695642358103
C           14.47782594337543        0.02503978741665        1.83970432791554
C           14.75171263207895       -0.83514967573404        0.65583204728187
O           15.37481914963211        0.66781214231344        2.33838421441984
C           10.95115939984359       -0.66103664784140        2.77911528449110
C            9.67892334149059       -1.20411080408417        2.59211841737111
N            9.10709896302021       -1.65591642090417        1.41605997954530
C            7.89008200693027       -2.21179738394100        1.65349936580573
C            7.63715474195365       -2.09345822120740        3.04221417124883
C            8.72406984655966       -1.49362227933085        3.62631567390771
C            8.86576201550113       -1.16402090227287        5.07728145444331
C            8.65070501000360        0.32066198122217        5.37338367525212
C            8.79517566170369        0.65326805217253        6.84923986727767
C           12.30331020114203        0.76187214457348       -0.45483008851084
C           12.94420443296479        2.04641350560187       -0.03284265272739
C           11.96585452722893        2.98841280688920        0.66827466591976
C           12.62624802179151        4.27126013103652        1.14393522301808
C           11.93376251445173        0.42604661296485       -1.72626842371768
H            1.19022496839967       -3.42753617508032       -2.33758327090013
H            1.39581589601132       -4.62375559964692       -1.06145684156971
H            2.05121565515717       -4.92911769986693       -2.66223115135394
H            3.01663972548990       -2.70151648631656       -0.77470977388896
H            3.66587870859744       -3.00689232402300       -2.36003249135790
H            4.38898226380526       -5.31314129252553       -1.61007271258195
H            3.74562823871751       -4.98918925661662       -0.02426044748189
H            5.22456721754323       -3.51171893517181        1.64269907362019
H            5.77578075400089       -4.30583825823256       -3.14226117018502
H            7.31280527724145       -3.64736805693306       -4.72942602676008
H            8.93257343070168       -2.33531527118788       -1.50091777566073
H           11.33715137265030       -0.81749111506928       -4.60150650684119
H            9.78639581479795       -1.47171231961593       -6.65653525561576
H            8.25083861342535       -2.22569839127647       -6.32845720549950
H            9.42469579114737       -4.44269102827453       -5.99735835070219
H           10.95055448934826       -3.67904743919263       -6.33935409639856
H            8.59948786594435       -3.85271213309125       -8.31417673980465
H           10.06817545528861       -4.82118991250811       -8.39492673418227
H           10.13925360525150       -3.08164658421084       -8.66038759829247
H           13.17317524348210        0.37097452612228        3.34483581495276
H           14.89034786851117       -0.23032958902837       -0.23921428222596
H           13.93541342226010       -1.53478467621415        0.47987322162266
H           15.66222289440635       -1.41090774061013        0.81614400050197
H           11.23072308646656       -0.51504007547372        3.80747387394263
H            9.58700604579527       -1.63065121926842        0.51998932822061
H            6.75303221775419       -2.43347272598647        3.55265702917976
H            9.85586618398514       -1.47765430271909        5.42640250934139
H            8.15325956662456       -1.76395234112671        5.65485324169847
H            7.65812479918184        0.61931084588217        5.01098319944705
H            9.35773124093279        0.91474048399003        4.77946553882727
H            8.07227382561795        0.09973271639190        7.45097566970020
H            8.64205009676306        1.71618276880224        7.04793153905482
H            9.78829986253973        0.39009588637032        7.21733210122254
H           13.37790961977244        2.54129641602565       -0.90896707785475
H           13.78930648586178        1.84055367958993        0.63056374171112
H           11.50822345863690        2.46224956301083        1.51647097443234
H           11.13162400289775        3.21348745252390       -0.00905142788055
H           13.43550516883437        4.05917702892833        1.84518288613574
H           11.91975251785596        4.93475180088194        1.64747241461858
H           13.06067245367031        4.82441488990525        0.30935732107601
H           12.10137720306285        1.00199715611907       -2.62030703792149
