75
 energy: -12.730415203066 gnorm: 0.000679479924 xtb: 6.6.1 (8d0f1dd)
C            2.49049731356060        2.65006475589455       -3.64383936055742
C            3.57277676734035        1.92321669556815       -2.86238518818553
C            4.79262841964185        1.57290541259424       -3.71603112991130
C            5.85331304686335        0.85597574896665       -2.94401054338951
C            6.01953448043225       -0.49589601867203       -2.86809519386799
C            7.10327784650366       -0.71460183205698       -1.97889407788702
N            7.56984831762017        0.45681270342264       -1.52772638346142
C            6.84445695196551        1.43502886049579       -2.07846970512797
C            7.01436425593786        2.83972632876558       -1.85193157513516
C            7.88343194916088        3.51069223625519       -1.04018830453291
C            8.90220949718177        3.02532269760693       -0.16155535618743
N            9.30221890035120        1.72552985556665        0.01615088727390
C           10.28797969102753        1.63289816620440        0.95192374322858
C           10.55165142452322        2.93552813689889        1.39275292278184
C            9.70617281851344        3.79968176477842        0.71215980572603
C            9.70552141801192        5.28921921550654        0.84097307458917
C           10.54998980459023        5.97663834434905       -0.23318138787991
C           10.55981489158112        7.49088930495166       -0.10168279834452
C           10.85915242674409        0.37478581786256        1.37007999275160
N           10.60616014330308       -0.76908581413632        0.73185006415208
C           11.22012002882874       -1.76141988823057        1.39719619751175
C           11.20841893304460       -3.16164425342464        0.99121617578209
O           12.20242733476378       -3.97512684274136        1.41575790028167
C           10.24049420817395       -3.80906711144619        0.16854961552358
C            9.15563189428859       -3.33708388617877       -0.55433018690217
N            8.74034695005459       -2.02717425848703       -0.72255634739551
C            7.68914153445498       -1.95378298404413       -1.57579168539039
C            7.38112440707270       -3.28196336775770       -1.97612511123213
C            8.25884564181281       -4.13156875632915       -1.36008402455469
C            8.33292876667504       -5.60969918082959       -1.56510275766891
C            9.36858018666059       -6.01117270773073       -2.61705382105597
C            9.47100751398883       -7.51609076329439       -2.80446109583753
C           11.88770168194018       -1.21435070193197        2.54524203981435
C           12.57622344029830       -1.92103976214597        3.67355102283315
C           11.70457250710328       -2.98474459790242        4.34621593587169
C           12.40639147203433       -3.68343149742822        5.49902483917013
C           11.66149124841007        0.13301525993001        2.50571735897699
H            1.62777845848487        2.89271341610581       -3.02036700569267
H            2.13218936774017        2.04535886006093       -4.47818971865118
H            2.86585642633737        3.58508969967865       -4.06222583910827
H            3.16817250881700        1.00360585995066       -2.42062050689368
H            3.89360116299233        2.52947554579603       -2.00580964095623
H            5.21429047146223        2.47998985298555       -4.16133663474932
H            4.48495422663283        0.95192413821955       -4.56433836759117
H            5.44045450387129       -1.24741995067075       -3.37624713015665
H            6.33074124059886        3.45416296813489       -2.41446752661580
H            7.79163566660710        4.58475418619599       -1.04336571096751
H            8.86017886740966        0.94403327460575       -0.45696451796921
H           11.28663008159401        3.21724142675164        2.12658372832437
H           10.07571459217937        5.56369509140027        1.83481045955636
H            8.67548949371074        5.65916855062066        0.80494378270919
H           10.18076465729648        5.68487047475012       -1.22451403958784
H           11.57471165098923        5.58619933480102       -0.18794775890645
H            9.55176908206017        7.90070849951575       -0.17965156428426
H           11.16760037303231        7.96517229841121       -0.87474516121439
H           10.95944825075989        7.80062419989304        0.86506914671880
H           12.93256905342038       -3.45283666766171        1.80895009945225
H           10.41709197717092       -4.86668293423301        0.08387482157077
H            9.23582661782599       -1.24804316667438       -0.29914388292013
H            6.60579182372946       -3.56609203553633       -2.66566535237821
H            7.34494385373515       -5.98387200853321       -1.85462394510457
H            8.55793371619621       -6.09798774770848       -0.61103419052635
H           10.34618028421130       -5.59811885563670       -2.33766460468499
H            9.12023453381117       -5.52605451429724       -3.56967873921912
H            9.75517191853228       -8.01066240092940       -1.87421017930133
H           10.21374250462429       -7.78487015315853       -3.55857466437701
H            8.51577995884880       -7.94100494472453       -3.11691348139074
H           12.87546804403711       -1.17871007009163        4.42203810355822
H           13.51906183133290       -2.35569183171692        3.32761708003064
H           11.38573987656409       -3.72171126030647        3.59845610363036
H           10.77460317429980       -2.51783353774811        4.69506938620268
H           13.31760021321871       -4.18022365020229        5.16271024380604
H           11.77354105129494       -4.44103582274316        5.96524496421327
H           12.69416010745202       -2.97295880611798        6.27526741919792
H           11.98177026259799        0.86173559990899        3.23049928247767
