103
 energy: -18.603563632707 gnorm: 0.000860197653 xtb: 6.6.1 (8d0f1dd)
C            1.40512965695856        2.83551438375345       -3.49855683328929
C            2.77590581111017        2.38943427855898       -3.01727472273517
C            3.89971397237585        2.78857781755664       -3.97442974483520
C            5.24801796291950        2.35428452462090       -3.49710256233579
C            5.90724113605093        1.21679058985663       -3.86155837332403
C            7.11494634687627        1.19992670052804       -3.11347655364741
N            7.17877124226149        2.27514993077172       -2.31881625689550
C            6.07087360869975        3.00094252390055       -2.50928325175085
C            5.74464485913089        4.21987633154342       -1.83759316284176
C            6.41517355680555        4.89501934978693       -0.85490533688162
C            7.64894843990604        4.60179261822057       -0.19811344182505
N            8.52668639676521        3.58147478573349       -0.46907594978361
C            9.59123277526880        3.60320753553118        0.38170379638382
C            9.40468689594108        4.70017253310233        1.23699012014756
C            8.21602579256741        5.31994194706691        0.88819139736766
C            7.66601570181747        6.55907189431128        1.51806917276556
C            7.99774985582104        7.82337821654568        0.72467123037904
C            7.42923993390476        9.08252861141887        1.35761645560973
C           10.63724642047952        2.61278336044564        0.36568579565461
N           10.74299112574848        1.69162785121823       -0.59582592113932
C           11.77032950305465        0.88188237879319       -0.28620407613577
C           12.19519686284382       -0.25387581739222       -1.08671641584988
O           13.45216726576338       -0.83592036141846       -0.91258001350957
C           14.57223239441965       -0.02368764609307       -0.90044915282863
O           14.56380852192116        1.18092498821022       -0.97419996234476
C           15.87796967514659       -0.75114754680226       -0.77480722861705
C           16.94483225276995       -0.16379112423757       -1.68642211850368
C           18.26371255165214       -0.91744090997705       -1.62640352033341
N           19.30099336438520       -0.26556152055033       -2.39878640601842
C           20.20201050984185        0.58731820577126       -1.78256424257902
O           20.23991474840559        0.65553603040852       -0.56465805107723
O           20.99601460182541        1.31960502726767       -2.62797925946487
C           21.90798350846002        2.22698169609248       -1.95565372845534
C           21.11576334205576        3.24067484524107       -1.12087138869252
C           22.87791089646371        1.43183878321135       -1.07382005094731
C           22.69771669683436        2.96948110475052       -3.04215464660110
C           11.42023927427740       -0.92214429557486       -2.06427739251106
C           10.15388397094381       -0.70070071845213       -2.60445648232771
N            9.28231670887035        0.34450470636606       -2.36622372121939
C            8.16568317726503        0.23157623010310       -3.13168375497796
C            8.29742132334932       -0.95709776929695       -3.89371873437706
C            9.50582434409781       -1.52746339788724       -3.58945818582727
C           10.02549979660906       -2.81671218880649       -4.13773047242548
C            9.87372234124729       -3.98023310781354       -3.15720522413685
C           10.42232074510721       -5.28767598410380       -3.70369543809660
C           12.33019178646256        1.29965718214255        0.97094072504907
C           13.40199484733320        0.65260901693165        1.78937028721951
C           13.11202511248962       -0.81193099220156        2.11957380271454
C           14.19581107391670       -1.45060880488004        2.97159346641707
C           11.62060463675838        2.39873027370047        1.35815208863351
H            0.61197156478317        2.54268291276218       -2.80724096021355
H            1.16862372932212        2.40246322579419       -4.47202912521995
H            1.36007623456379        3.92030344941236       -3.60968533961319
H            2.79388058219298        1.30080540725952       -2.87610571123763
H            2.98321689528340        2.80569983725311       -2.02285190623090
H            3.89797650429815        3.87353131094492       -4.12557328230264
H            3.71318721324865        2.35920846943918       -4.96519943250214
H            5.57694228534061        0.47893555621520       -4.57220244379811
H            4.81245352525257        4.65657012446092       -2.15682705441398
H            5.93853482843294        5.79335041336883       -0.49666623989581
H            8.35314307908044        2.87130516737499       -1.17217402125345
H           10.07170539019306        5.00760120921065        2.02366831978230
H            8.05588578710094        6.64834559823312        2.53838739496091
H            6.58093584696596        6.45974965183431        1.63201128694874
H            7.62612129075900        7.71368066407183       -0.30240987617179
H            9.08755896174180        7.90750684113793        0.62198668357687
H            6.34205179622515        9.02783031779787        1.43604107196618
H            7.67299618956375        9.97760473115303        0.78137992750566
H            7.81753456699462        9.22621633562927        2.36742660266543
H           15.71761915810719       -1.80820618594713       -1.00797854931663
H           16.21187090989992       -0.71585644781094        0.26631756649158
H           17.11077642041640        0.88734476951438       -1.42057245643294
H           16.57755825170399       -0.13947841053353       -2.71896295275538
H           18.14296249686530       -1.95042832472390       -1.97152991039332
H           18.61615800853981       -0.98000297992821       -0.59037869104879
H           19.15216920712103       -0.20724844494449       -3.40618068107087
H           20.54239836406984        2.72875503465291       -0.35010385709793
H           20.41468340566142        3.78462225057211       -1.75113432858843
H           21.77767178170810        3.95818265616469       -0.63829749308605
H           22.33006548344727        0.88824104480528       -0.30612420142661
H           23.59585673719529        2.08875076557387       -0.58499686161025
H           23.42401060952171        0.70482125681923       -1.67209264502135
H           22.01987668117140        3.52257160935222       -3.69024931102008
H           23.24622077169366        2.26130760839405       -3.66098927283650
H           23.40758116316527        3.67056434517774       -2.60521194531745
H           11.93557273486354       -1.77112502840573       -2.47830887890650
H            9.49999103643596        1.10693544847171       -1.73174603499428
H            7.57322575080958       -1.34183413405746       -4.59026646081424
H           11.07761764043621       -2.69507242249021       -4.41781195579109
H            9.50329333669380       -3.04883475290157       -5.07274744487316
H            8.81375505515019       -4.09211019443245       -2.89357271821596
H           10.37279439234513       -3.72529251828345       -2.21313292017710
H            9.91437881265562       -5.57358042711626       -4.62635094103241
H           10.30438151323419       -6.11013855606589       -2.99491527984693
H           11.48566445971340       -5.20281348207474       -3.93453449573911
H           13.53154284365394        1.21736571436718        2.71957261706983
H           14.35784008155684        0.74660173722299        1.26554205062731
H           12.98688141719845       -1.37285288299051        1.18469190746012
H           12.13949696651784       -0.88097065183176        2.62403777021141
H           15.16414986323033       -1.41612513011704        2.46971161122941
H           13.97866739194153       -2.49757224721507        3.19390580600475
H           14.30860038969615       -0.92872803700162        3.92352718931655
H           11.74849326633832        2.96214172654775        2.26651131525441
