97
 energy: -17.685977151963 gnorm: 0.000856325663 xtb: 6.6.1 (8d0f1dd)
C            1.63878846199110        0.17371745036825        2.41384339764305
C            3.13994182507869        0.08238399015498        2.19664719935406
C            3.72587162889099        1.34500372515175        1.56375826041777
C            5.20441432870960        1.25843916974008        1.36397058082167
C            5.84515739629368        0.82209096493434        0.24465129857414
C            7.23571425526290        0.84439198907714        0.53714484394748
N            7.43549929528805        1.26101940149903        1.79802055318937
C            6.22887424877928        1.51387840261736        2.33677271775551
C            5.98306185983876        1.86696605641366        3.69908890179534
C            6.92777362240269        2.00785505884835        4.67359416410629
C            8.34642265047145        2.02360835932239        4.45178450310661
N            8.97100791301374        2.60452345964035        3.37062521077150
C           10.30081618460439        2.27363016165045        3.37595278832816
C           10.54488163133369        1.51661425187740        4.53429260758278
C            9.35324485393360        1.38544842363559        5.22103628061815
C            9.15481672209486        0.66169638497655        6.51310756606349
C            9.25629615055472        1.58416848872067        7.72828709940527
C            9.05170711979890        0.85173447953730        9.04396042779966
C           11.16117554766025        2.45001369258164        2.21668324840716
N           11.81905410765956        1.43534054768229        1.63554223601911
C           12.21953168619043        1.86983877948196        0.42350638870208
C           12.67843110598511        0.96996496799573       -0.65553498233897
O           13.98701132780876        0.86564930189931       -1.06948895053516
C           14.88760648654875        1.83113072277739       -0.67515703178837
O           14.62853026829244        2.90345760984834       -0.18851469863693
C           16.32955324544886        1.49588778439523       -0.92277584268261
N           17.15889072507995        2.15126772165055        0.05045572786163
C           18.51176543630545        1.89104189823945        0.16093674543190
O           19.03142876232328        1.04659598512421       -0.54858744390352
O           19.17366260762078        2.64009008164078        1.09789553185535
C           20.59245598543880        2.35329931483775        1.19972944351144
C           20.80229037816661        0.88868752985896        1.60132217638076
C           21.28159730734952        2.65802614856945       -0.13534181312458
C           21.16433312350725        3.26827410339125        2.29036975333623
C           11.75266185785886        0.16917227343709       -1.34992059400417
C           10.37051212387096        0.12895381497165       -1.16436956680911
N            9.61724027713250        0.65143529624607       -0.11732080419745
C            8.29167917898570        0.44614782217342       -0.34613272479617
C            8.17325034625993       -0.22616844695201       -1.58960090250844
C            9.42910975693270       -0.44842420271345       -2.08342332420055
C            9.75235907318354       -1.06825707500722       -3.40326074265254
C           10.03924830435050       -0.02905983657385       -4.48790520323644
C           10.36936584699954       -0.65570101328810       -5.83207756615862
C           11.79766491904547        3.22696085384795        0.22808116961114
C           11.95877724097738        4.02180950189566       -1.02362253564902
C           10.93275192339277        3.65221691769280       -2.09485766966186
C           11.11868065676847        4.43206511723214       -3.38486161359758
C           11.11593089329260        3.57424303076744        1.35274857928526
H            1.23354996100740       -0.73421564491375        2.86566683915847
H            1.11253447056367        0.33459008624609        1.47139771644807
H            1.38534533347189        1.00816170929216        3.07005709169356
H            3.38120195279184       -0.78190426530097        1.56419169883848
H            3.64991931902913       -0.11481276875859        3.14851746361728
H            3.49226313917537        2.21887837838944        2.18157703846897
H            3.24293181141425        1.53548536850341        0.59880651053740
H            5.38645565236097        0.51666195651500       -0.68000379555364
H            4.94888744038626        1.92585579776201        3.99179356628572
H            6.59675780842206        2.06649555991204        5.69884003799212
H            8.47230783634156        3.01563609804292        2.57354451260596
H           11.49013145202315        1.08248443607845        4.81125256843551
H            9.89364504472880       -0.14361046235517        6.59302648055449
H            8.17969320225867        0.16200780759996        6.50243317738392
H            8.52376018935289        2.39548691153679        7.62714255228511
H           10.23403394447781        2.08355025915314        7.71910065514556
H            8.06937216103879        0.37792012979278        9.08305123107158
H            9.12787434224687        1.52179469936037        9.90294948997085
H            9.79463040470834        0.06332571054147        9.17572664078378
H           16.63146998592244        1.81597790474275       -1.92361227540649
H           16.48911707389296        0.41642000946702       -0.85488126904316
H           16.70351039210028        2.89744455332171        0.58338851426797
H           20.38616440952854        0.22678222770660        0.84383868108182
H           20.29627037803466        0.67786570496438        2.54191211099440
H           21.86058151113897        0.65831722087892        1.71644092993811
H           20.87641671424721        2.02345976371899       -0.92164165260040
H           22.35560565670861        2.48785651845373       -0.07386331380255
H           21.10986505454425        3.69432468140573       -0.42140613505957
H           20.66958262813062        3.07585921687205        3.24103062409411
H           20.99523950656715        4.31268924435506        2.03333209372620
H           22.23465069568207        3.11098343795258        2.41773964858144
H           12.15974207584581       -0.40271233437592       -2.16277206765901
H            9.97473374948044        1.10227550557733        0.72666240460408
H            7.25146175686144       -0.52178937982452       -2.05940341346212
H            8.92024078962526       -1.70985322450632       -3.71437842740656
H           10.60940720490975       -1.74105441238522       -3.29006942611661
H           10.86256967565324        0.61863931475424       -4.15968152803337
H            9.17427568129581        0.64051501578949       -4.58197573178600
H           11.24874585539324       -1.29809510348486       -5.76134935009638
H           10.57289161671548        0.09676410453858       -6.59684996974898
H            9.54619110536549       -1.27549428500161       -6.19132438052577
H           12.97493390937317        3.86476214737885       -1.40399146256832
H           11.89324722259900        5.08961045705603       -0.78869240522637
H            9.92191477934219        3.80653266899919       -1.69518512837315
H           10.99477972900253        2.57513692671099       -2.29440008410409
H           11.02702168985885        5.50601559269690       -3.21340312596517
H           10.38150844403683        4.15509852387294       -4.14169552950555
H           12.10837429337659        4.25736895893222       -3.81078800641871
H           10.59995030018916        4.50189681018200        1.53285280858967
