74
 energy: -15.928573925936 gnorm: 0.000763464599 xtb: 6.6.1 (8d0f1dd)
C            5.99263881850893        5.36128905682793       -0.02724817308053
C            6.76592171317672        4.05248487459952        0.08870649815490
C            8.27594001246769        4.23030690617406       -0.11602422288047
C            9.07729652035536        2.96200861909641       -0.02246924289020
C            8.62020950168267        1.69756437778980        0.26098914689357
C            9.75111605909136        0.84725496067837        0.23361578871748
N           10.85399268738407        1.55189703693549       -0.05065852011037
C           10.49354875571801        2.83768682300011       -0.21374935988706
C           11.37445760567378        3.93333801745867       -0.52967174678853
C           12.72109188454399        3.97187024764124       -0.76553395211920
C           13.70951675267829        2.92917758783303       -0.76827550525740
N           13.50989983264001        1.59841209498981       -0.48810968246099
C           14.67482685566280        0.88865030901310       -0.58209435971020
C           15.67572843532971        1.80109324457929       -0.93924526272579
C           15.08963983761825        3.06048171388255       -1.06417821973233
C           15.81197197719509        4.32225284433851       -1.43407257738725
C           16.24254447201329        5.16425051142178       -0.22328311545789
C           17.30791487532755        4.48345182986467        0.62608317641251
C           14.73545694191808       -0.53919221225876       -0.34728766659794
N           13.63973964401514       -1.24273580011742       -0.03422471165257
C           13.99975231149106       -2.53196953412431        0.10453975435400
C           13.11412800064629       -3.62670378804751        0.41245163618760
C           11.76588427512278       -3.66369933746180        0.63990050745476
C           10.77749248203106       -2.62147280747897        0.64181123540191
N           10.98035031528599       -1.28576446600302        0.38870749497446
C            9.81030719494511       -0.58169126339283        0.46168697131146
C            8.80317892816421       -1.50274324031700        0.77671163616005
C            9.39068470778584       -2.76169912780217        0.89952870789545
C            8.65750322125174       -4.03249241419506        1.21170879674017
C            8.26139816615693       -4.82676306549925       -0.03719183077312
C            7.50621809809917       -6.10961473903740        0.28981065713204
C           15.41295102204216       -2.65621267277242       -0.11923591727287
C           16.23158811812782       -3.91653243793202       -0.11951547612371
C           17.66157807621607       -3.73904151777861        0.40584038306627
C           18.44738476224415       -5.04496191699949        0.43734806015406
C           15.86159475018433       -1.39263713764795       -0.41699257880219
H            4.91491015068890        5.22132729964838        0.12060207081475
H            6.12952446001333        5.81951191225494       -1.01283041216538
H            6.33134349328606        6.09193079701446        0.71531629406164
H            6.38495284840466        3.32241748124574       -0.64121296602731
H            6.58461775893604        3.59233322685405        1.07175469172803
H            8.66132654683385        4.94909381853829        0.61940586384563
H            8.45753373364875        4.69205990600047       -1.09573341455224
H            7.60366436478065        1.40076936247073        0.46304084974542
H           10.86356549184186        4.88323831563270       -0.59148111860833
H           13.12873221531413        4.94664855144557       -0.99022087070486
H           12.59625946791836        1.21585809418872       -0.26268062759992
H           16.71571821552129        1.56615117606053       -1.09866847304302
H           15.17346493709110        4.91195876183241       -2.10693642497594
H           16.69567489983090        4.06383037208050       -2.03337502771319
H           15.35790341500298        5.38663793658397        0.39187841655482
H           16.60954180067821        6.14703381612200       -0.56156432749458
H           16.95164973845076        3.52496865147040        1.01516638366577
H           17.60781619399634        5.09460364572427        1.48570326456841
H           18.21082754893374        4.27655118620599        0.04161279986039
H           13.61611039427670       -4.58107689263602        0.46422121712070
H           11.35493891862882       -4.63986685135763        0.85234610753881
H           11.89529434976288       -0.89868174543641        0.17651571329028
H            7.75683541120750       -1.27595897211301        0.90390643464038
H            7.75971584946218       -3.79412323400717        1.79825288943910
H            9.27193524365174       -4.65567075279909        1.87468861758896
H            9.16463390712556       -5.05479886272733       -0.62261363786384
H            7.65575123106453       -4.18548879113398       -0.69540629152284
H            8.10842182545307       -6.77872082156885        0.91418885739606
H            7.22634872893234       -6.66769712586048       -0.61184887011831
H            6.58387255650176       -5.89966671011818        0.84271074478191
H           16.25850686215412       -4.32340063369421       -1.13916320432553
H           15.72536183448343       -4.68045229445728        0.48348070967187
H           17.62332980753598       -3.29381103384414        1.41158418258009
H           18.18961801726675       -2.99707445513924       -0.21145454594205
H           17.95936359419878       -5.78894505749494        1.07645366386636
H           19.46683776984885       -4.90676465711318        0.81722806624864
H           18.52865999658441       -5.48568772416707       -0.56235354901140
H           16.86897880787764       -1.09991127296263       -0.66538240664954
