70
 energy: -13.219854827165 gnorm: 0.000438688460 xtb: 6.6.1 (8d0f1dd)
C            7.58148358079771        2.27391615099337        0.64991225037332
C            8.12445363878642        3.04686062643291       -0.54101344913115
C            8.08042957557301        2.23915009979867       -1.84323112239963
C            8.92050966632162        1.00326048323444       -1.79135032252947
C            8.47899858298770       -0.26216705176997       -1.55129177207371
C            9.63505702011387       -1.09247521569434       -1.52525539995906
N           10.73433718983240       -0.35930035325421       -1.73311242219843
C           10.35730381546620        0.92041217902110       -1.89916496840929
C           11.21329131468424        2.03039507403189       -2.13695385591012
C           12.58176802459237        2.10559920408794       -2.25797066653073
C           13.57276698078361        1.09415128043534       -2.19031550768904
N           13.38306735711173       -0.24671504397714       -1.97944713374419
C           14.56713074278690       -0.92079573395725       -1.96612988309217
C           15.58367894607374        0.03581618569446       -2.18072027368940
C           14.98560382132503        1.26889115209761       -2.32652128876449
C           15.70101095491908        2.56619286161403       -2.51643952269156
C           15.87156749764636        3.34199544091072       -1.21661628942713
O           16.53226245856924        4.57722823786759       -1.41884662963249
C           14.64374091076006       -2.33283148809546       -1.75501657354104
N           13.54509653764474       -3.06623273527653       -1.54581803878679
C           13.92254344586146       -4.34589671801913       -1.38106236690823
C           13.06813269015004       -5.45291156593183       -1.12429888539904
C           11.70076077119245       -5.52572323394985       -0.98764212631404
C           10.70863906379267       -4.51539317841091       -1.06002225049529
N           10.89683211978277       -3.17703555339810       -1.28890051701502
C            9.71258671148003       -2.50285639478438       -1.30331678791914
C            8.69717741056373       -3.45696639798630       -1.07180993171807
C            9.29636909040609       -4.68828392527907       -0.91357107080366
C            8.58024644639965       -5.98361015514408       -0.70511228986713
C            8.39977895276677       -6.77486282906053       -2.00115943360394
C            7.66778345983991       -8.09012838628304       -1.79234881292233
C           15.35861363946206       -4.42939052123756       -1.50203041704432
C           16.21261731295028       -5.64527084483367       -1.34630554568514
C           16.51636021072867       -5.96799326983328        0.11160983846375
O           17.37120061912402       -7.08047695442387        0.27066329811949
C           15.80055596112677       -3.16147649034341       -1.72475674537090
H            7.60795492698375        2.86292823015696        1.56932166522004
H            8.15970166444093        1.36526809228214        0.82651026836206
H            6.54680519592088        1.96901167125955        0.48375825706186
H            9.15942001750007        3.35346493314616       -0.34214847789841
H            7.56505917797958        3.98430986391718       -0.66430078052081
H            8.40069508962149        2.85436294247954       -2.69240355547016
H            7.04545692742170        1.95458198673937       -2.06370669236737
H            7.45975315523461       -0.57220361900727       -1.39773268016978
H           10.68812214491136        2.96634136634978       -2.23905184479898
H           12.97989953066661        3.09156995025073       -2.43605402559789
H           12.46439643191098       -0.65571453500290       -1.84161787083884
H           16.64058352581699       -0.16340966636922       -2.21532265202448
H           15.16512517034304        3.18347157770174       -3.24428776109656
H           16.68463131226547        2.38341827999819       -2.96122116630297
H           16.44497036162459        2.74505771566821       -0.49596225849594
H           14.89206496936588        3.53425003880923       -0.76066237611596
H           16.64264552725436        5.06324541814725       -0.56901721546249
H           13.59396270547540       -6.38810644058959       -1.01897002603039
H           11.30468978123719       -6.50949701798006       -0.79313532563679
H           11.81525841832619       -2.77045694236070       -1.43458764239592
H            7.64049206432110       -3.25719487742093       -1.03386961667911
H            7.60224693034869       -5.78586530102296       -0.25196460881931
H            9.12284278319281       -6.58621535996765        0.03154616556606
H            9.38322429433735       -6.95533566762054       -2.45454542934993
H            7.86388259099433       -6.15279012109164       -2.73010724955181
H            8.20461842156712       -8.73354408582093       -1.09301542347263
H            7.54831346854531       -8.64594804798671       -2.72483966621690
H            6.67145264755470       -7.92579143631968       -1.37813455502850
H           17.15317689192198       -5.50111110039076       -1.88810311504642
H           15.72923928586068       -6.50144347508502       -1.82744634606114
H           15.59248065698912       -6.14750980825448        0.67570500382113
H           17.00717469809054       -5.11537574594017        0.59572153671130
H           17.00020880241583       -7.86357544644601       -0.19635607795459
H           16.82203390710572       -2.84700830746210       -1.85155154302833
