76
 energy: -14.110229765142 gnorm: 0.000966901353 xtb: 6.6.1 (8d0f1dd)
C            6.86861058856872        1.88982454508263        2.85729501517931
C            6.85130209739637        2.44408334222302        1.44144768703898
C            8.25724448091706        2.60732941257757        0.85026433155036
C            9.01229796248375        1.32136374563603        0.70447127188405
C            8.48594158058171        0.08587347296044        0.47740806396802
C            9.58607357227187       -0.81166627853188        0.38347656889324
N           10.73675832098668       -0.14703145287363        0.53061641037818
C           10.44729780452889        1.15191226752942        0.72062223474897
C           11.38670440398007        2.20520761931904        0.89762872298898
C           12.76237347027513        2.19406191747350        0.94480225803920
C           13.68697020052857        1.12491962188457        0.82763004831594
N           13.39956473139670       -0.19686307693346        0.60758076832694
C           14.53384186877369       -0.94565394048402        0.52035647585289
C           15.61992517332988       -0.06094132703035        0.69475079339050
C           15.11484645717690        1.20583020092204        0.89712002056650
C           15.92288624299069        2.45058244688920        1.09073223348513
C           17.20870697080325        2.23269825746086        1.87758737603592
O           17.91858340679912        3.44899386717853        2.08917340516396
C           19.10986513687303        3.25854361380484        2.81553755061126
C           14.51110307214523       -2.35577737766760        0.28599930938811
N           13.35986792979578       -3.02315022336488        0.15799839501739
C           13.65053151710842       -4.31848801433881       -0.05245850677319
C           12.71416237094334       -5.37461672589922       -0.22460881752661
C           11.33816137747630       -5.36699993699067       -0.24479823190982
C           10.41682051810828       -4.29845198697505       -0.10513855498294
N           10.70056343734047       -2.97216712511634        0.09335493171750
C            9.56349774831360       -2.22526680805461        0.17078699558859
C            8.47896884858329       -3.11587806408523        0.01004207062755
C            8.98967301858717       -4.38644307417465       -0.14809759593410
C            8.18531000441427       -5.62361260586179       -0.38558182553174
C            8.07908929310441       -5.98644107694037       -1.86710732476196
C            7.27157898193789       -7.25110339033464       -2.10740816604241
C           15.08514433962860       -4.48348191488379       -0.06418759880399
C           15.82995385407392       -5.77098948833922       -0.23111585742424
C           17.30171685629668       -5.59688280557402       -0.58218527844582
O           17.95747158232137       -6.84625772281669       -0.77351978770070
C           19.30405333436500       -6.69428111737923       -1.15648271661106
C           15.61258646401120       -3.24779932282330        0.15862484507507
H            5.86210876750308        1.76751274292353        3.26299331153433
H            7.41758106535730        2.54895862652304        3.53211367380002
H            7.35803377736057        0.91534870652922        2.89501537313096
H            6.32807491110222        3.41011170830531        1.42816554674339
H            6.25728079349999        1.79138529605571        0.78915894254132
H            8.83099656045626        3.28650753477083        1.48959205307108
H            8.20618704759675        3.09393760484992       -0.13104425741176
H            7.44507541320818       -0.17095973429196        0.38440387462213
H           10.93151482540403        3.17603512933705        1.00735438039156
H           13.22705510435364        3.15606995865607        1.08795518568294
H           12.44930709315851       -0.54232702283824        0.51913543089618
H           16.65973318515450       -0.33567444287382        0.66647534467794
H           15.32318945199473        3.20408373661410        1.61001290888423
H           16.16140414827024        2.88549540018401        0.11484163911954
H           17.87418240982751        1.53991550341012        1.35158729013623
H           16.98865048259110        1.79086913652600        2.85575449973612
H           19.59983521638543        4.22385744945910        2.94570969115794
H           19.77570543125259        2.59003918562813        2.26881451769453
H           18.88451873826709        2.83654509361691        3.79545577124974
H           13.17299304922685       -6.34124765752217       -0.35643932093419
H           10.87007715853935       -6.32686847056146       -0.39311914805508
H           11.64942786632438       -2.62065072489604        0.17072851125896
H            7.43687344811871       -2.84763905876330        0.01212629600174
H            7.18310036974003       -5.48802489410502        0.03650613883888
H            8.62334271725041       -6.45678172197358        0.17494885120373
H            9.08788908496060       -6.09497494694394       -2.28625335798193
H            7.63682934876489       -5.14225767244291       -2.41224633410128
H            7.71813694048293       -8.10686210872866       -1.59818957038429
H            7.20414081294378       -7.49918590285320       -3.16887405175418
H            6.25320889018239       -7.14712310908566       -1.72892892314898
H           15.35224888802113       -6.36918646334195       -1.01364848492229
H           15.74417565785312       -6.36210410676691        0.68638665670330
H           17.82933516593283       -5.05719698191219        0.21179748712022
H           17.40944991130802       -5.01028047768905       -1.50124878494923
H           19.75251011290297       -7.68206039513147       -1.26513353926261
H           19.84751152735365       -6.13640647553051       -0.39358431976524
H           19.36177000866745       -6.16900315313177       -2.11014792852148
H           16.65462559949137       -2.98790676546462        0.22783712358671
