17
 energy: -2.403169132159 gnorm: 0.000683416339 xtb: 6.6.1 (8d0f1dd)
C            0.98473420557259        0.10843536102244        0.02055702288908
C            2.50469038952505        0.08320443345044        0.05080511623186
C            3.05928379273884       -0.82987342214677        1.14542198416562
C            4.58807639532796       -0.86046388018918        1.18209741587422
C            5.13189069851405       -1.76998681878468        2.27245068848199
H            0.59893942374905        0.76344312436045       -0.76468057986784
H            0.57589425401429        0.45983516843485        0.97049999389233
H            0.57589489144419       -0.88913293742829       -0.15474541517693
H            2.89733767961288        1.09921905444024        0.19180299105456
H            2.89733807065719       -0.23775590332190       -0.92343809036004
H            2.67325685417971       -1.84766283602718        1.00733876600559
H            2.67325500782213       -0.51146327271820        2.12193400287245
H            4.96868973923764        0.16099574653369        1.31659556359379
H            4.96869182646055       -1.17600313551363        0.20133109988043
H            4.79263149153576       -1.45010724150862        3.26017594803347
H            6.22457029842475       -1.78464258565321        2.29002346732592
H            4.79263498118338       -2.79907085495045        2.13493002510351
