98
 energy: -18.220388125421 gnorm: 0.000541515926 xtb: 6.6.1 (8d0f1dd)
C           -0.01901268664239       -5.22478408859360       -0.09890955137021
C            1.37876969867294       -5.30212168063598        0.49441084554023
C            2.44434512870032       -5.62604118723175       -0.55232191749957
C            3.86433256216955       -5.67823597849290        0.02326227260634
C            4.86653994854229       -5.99058198080747       -0.92825011385480
C            5.68751973802319       -6.29847240967868       -1.77404632433093
C            6.63665030144602       -6.65992229032284       -2.75086000723393
C            7.54555966159094       -5.71453773489510       -3.15899145881400
C            8.54005551075460       -6.03931399765635       -4.06854052199190
C            8.63499973086034       -7.31887309894196       -4.53491974162740
C            7.72180122342997       -8.29390448128136       -4.12084393320831
C            7.90508081492521       -9.64085630371287       -4.54623786799341
C            7.13652389312751      -10.68849305693574       -4.15701046451911
C            7.46331515026136      -12.05971755300352       -4.68407996863145
C            6.88919846698796      -12.32048773023200       -6.08433527437330
C            5.36260857440223      -12.47076600369680       -6.11779476436242
C            4.87984921206757      -13.81281470682206       -5.58583667810807
C            5.99749882383224      -10.45416447411479       -3.33977295748777
C            5.10116100535652      -11.41699186967309       -2.89736461224768
C            3.89428129154596      -11.12554458497242       -2.28265161808029
C            2.99319731977303      -12.22864401054262       -1.89166813477461
C            3.53811678172319      -13.47254415075883       -1.50173429812896
C            2.76904701511797      -14.54164068178970       -1.20893777655822
B            1.27968049069350      -14.43146737171328       -1.36510307496201
C            0.71852610363710      -13.05450977561098       -1.56021345424341
C            1.61875432822611      -12.04756711563560       -1.88444359725232
C           -0.67035100691158      -12.88886302232360       -1.30963590783113
C           -1.27798203885343      -11.51544041040187       -1.30546003143249
C           -0.94090026331522      -10.72715146724041       -0.03898184696019
C           -1.53255222889440       -9.31811364351533       -0.02948724518411
C           -1.19056777865890       -8.54886554752938        1.23661895119893
C           -1.42728236211033      -13.96245222163953       -0.96690440960093
C           -0.95724402667419      -15.30771114932989       -0.94524321644039
C           -1.84553479187089      -16.35045415466880       -0.66305586704594
C           -1.43489549748748      -17.65060888071926       -0.75274265737449
C           -0.13923774825985      -17.93764199795764       -1.15802381173257
C            0.74716278216948      -16.92350268339538       -1.42678129341696
C            2.02656959660459      -17.23372756560541       -1.92972201631009
C            3.12713100096223      -17.44811652841239       -2.40572076646604
C            4.40963954206381      -17.61413442396309       -2.98426849690029
C            4.41504634463825      -17.63640415745992       -4.51665504023774
C            5.81932768188944      -17.75062486146157       -5.11041787854684
C            5.81336391095589      -17.82136157432441       -6.62924458163983
N            0.34082386282628      -15.61747087293711       -1.25650991295092
C            3.51283455803225       -9.78001931757335       -2.09661884556387
C            4.31000884101531       -8.75127233890607       -2.45288020904667
B            5.68000122304577       -9.02477688284159       -3.00600765784300
N            6.70361641403700       -7.93429671590377       -3.27547331561492
H           -0.77564634892155       -5.00471377541424        0.65779951202073
H           -0.29655260714772       -6.16506536276383       -0.57895814544267
H           -0.08168258467434       -4.44569005153314       -0.86109177708263
H            1.41165775992782       -6.05725003351390        1.29123829435706
H            1.63224396576110       -4.35543515378754        0.99005143797351
H            2.40623420156791       -4.88558326983400       -1.36072648052439
H            2.20789705609015       -6.58318591994346       -1.03308362261478
H            3.90077121641229       -6.41566688447369        0.83608685929353
H            4.10276210872279       -4.71700954430293        0.49750271714936
H            7.48452636465232       -4.71782911544412       -2.75546415649634
H            9.24711545823554       -5.29025298240040       -4.38647436008066
H            9.42381581733616       -7.59148287754956       -5.21534639787290
H            8.73736060344022       -9.84096491633012       -5.19848874408804
H            7.12193802628172      -12.82692705953827       -3.98305502477800
H            8.55525123966445      -12.16904445384086       -4.70127803836050
H            7.34274228076895      -13.22128734875832       -6.51758704957325
H            7.19731423917218      -11.49715009588797       -6.74202184887564
H            4.99858529544260      -12.33862375768381       -7.14671970855415
H            4.90613377532392      -11.64865052549220       -5.55184677453294
H            5.25418161165000      -14.63374974204572       -6.19980840677102
H            3.78951809693678      -13.88213020068125       -5.57553896249699
H            5.22636793266078      -13.99831082380775       -4.56885507692354
H            5.33158857403907      -12.44838385634570       -3.07924268344502
H            4.60714006460907      -13.55677150623873       -1.40629471573285
H            3.18082831630401      -15.46376216370394       -0.85186547957323
H            1.22853380122912      -11.08158868352955       -2.14518369276695
H           -2.36595558348098      -11.59487581615599       -1.41334272539153
H           -0.94710383680432      -10.96464609903455       -2.19290033626338
H            0.14776307108267      -10.66980303549868        0.08079496829630
H           -1.29132967522312      -11.28234490964627        0.83973002454541
H           -2.62211476520449       -9.38176957881600       -0.15160966078298
H           -1.17933937444605       -8.77013100077437       -0.91330659665717
H           -1.55116951569177       -9.07121937224219        2.12484828316282
H           -1.63220948712771       -7.54981679992668        1.24329392085743
H           -0.11075586914009       -8.43269809233947        1.34868576547385
H           -2.46392424705960      -13.79849863439864       -0.72999869483697
H           -2.86134762035706      -16.11821100009960       -0.39181486496508
H           -2.12249448028999      -18.45287439171608       -0.53915733647438
H            0.17762524472008      -18.95935835631598       -1.28246487579797
H            4.86306289410997      -18.53825457412654       -2.60235466986700
H            5.06523788793046      -16.80642646941732       -2.63211246723284
H            3.92450055729119      -16.73205669336442       -4.89675722350455
H            3.79272662916188      -18.46674729047896       -4.87192509877556
H            6.31733172475146      -18.63631301400225       -4.69377658948723
H            6.42615257031791      -16.89970964818956       -4.77268368008824
H            5.25250926414363      -18.68925890068230       -6.98155199382382
H            6.82266807535639      -17.89379440708230       -7.04112139133839
H            5.34308002749944      -16.93841492121738       -7.06576726251471
H            2.55949212884242       -9.56971661775385       -1.64377072648984
H            3.99383001316858       -7.73302154507296       -2.36722339719815
