117
 energy: -21.273363981596 gnorm: 0.000489020487 xtb: 6.6.1 (8d0f1dd)
C            1.62451877048702        1.63299255788605        1.79415244599903
C            2.87470720203284        0.95882398951635        1.25271550100637
C            3.26748665008484       -0.28640040974924        2.04904699707965
C            4.51627059136853       -0.97186452826925        1.50010883152506
C            5.02718953300317       -2.15685857112989        2.33964451233316
C            3.99738007997680       -3.30845950305591        2.46531269783892
C            3.12847994297226       -3.22045300933945        3.71054673736188
C            6.35949443819910       -2.66752198597992        1.78413412745369
N            6.88209942142142       -3.77924429595888        2.57383347516979
C            7.42760220777811       -3.47085358721086        3.84674503913017
O            7.39931037250908       -2.39385367448049        4.41157119678717
C            7.99658052953954       -4.72283371325215        4.32228281850701
C            8.73188642582568       -5.29042808300219        5.39756693671990
C            9.21736725750373       -4.58351855781419        6.54269015049272
C            8.89650796342377       -3.28467320134894        6.86754069416586
C            9.47385246150786       -2.82691895621908        8.06263847504368
C           10.27682814070528       -3.75557156708951        8.68467436403165
C           11.00557083715612       -3.60878802138900        9.92767790866911
C           11.92536941480565       -4.58928167701852       10.31420493149745
C           12.63654371549304       -4.47617969650297       11.47926265795470
C           12.45320773423421       -3.37665609660007       12.32735463793078
C           13.22585419167739       -3.25153400534657       13.58139523362195
C           13.08738918452112       -4.18026753727765       14.63996852015247
C           12.22894354185517       -5.30899308077635       14.81209083461235
C           11.20322509859542       -5.82093113654558       13.87164215574192
C           12.52481812350217       -5.86638921777519       16.04305879413899
C           13.53100170066485       -5.10076101078978       16.66369429031947
C           14.15115070506088       -5.30284790861888       17.98516865938907
N           13.82665326217514       -4.11717861564978       15.80997658694966
B           14.84440172347866       -3.02524198053213       16.13125049345102
F           14.43032537611881       -2.32814569034878       17.26347946136614
F           16.09662772333235       -3.60472401554301       16.32070305147993
N           14.90612857209056       -2.06844876750671       14.94278850799739
C           15.73622302350188       -1.02299527570669       14.90242461005113
C           16.65560840731106       -0.61709378789045       15.98021564678286
C           15.55645411445177       -0.43098433901466       13.63721925335821
C           14.61085112689214       -1.15325411959901       12.93171062600161
C           14.17314781777214       -0.85553412486346       11.54632488551380
C           14.16370781895110       -2.21088308514065       13.78163170297833
C           11.52176271288049       -2.40051269554692       11.94746546461160
C           10.81920646337493       -2.51045712489209       10.77486148129529
S           10.31421238055736       -5.21134500058716        7.73754145116570
N            8.87937358340790       -6.62591597451793        5.10607668211485
C            9.50118200043624       -7.67010085242396        5.91658589623632
C            8.72546579249167       -7.96115269635959        7.21484599850374
C            7.52820213318714       -8.90210121359006        6.99231522950542
C            6.48071327074330       -8.36242049828753        6.03345507299962
C            9.66887768418649       -8.49089792403648        8.31480474783119
C            9.08513443168291       -8.39343008404401        9.72433521660532
C           10.09002582381777       -8.76759849832914       10.81412957834337
C            9.50163347547957       -8.66883958185680       12.21209746535153
C            8.29868280918386       -6.94314671559567        3.85336551474246
O            8.26584153574771       -8.04114991981006        3.33360325869580
C            7.72985717489219       -5.69210954537920        3.36749778700201
C            7.01015779546689       -5.12025136020558        2.28284677800204
C            6.53373141230084       -5.84676864846205        1.13486424448704
C            5.71333549935919       -5.38326277478753        0.13736399260317
C            5.46115512183258       -6.32284653505203       -0.88865205138550
C            6.06439729755876       -7.51651672594112       -0.68530362569054
S            6.92557553239727       -7.52434098936679        0.80406036713640
H            1.35436934328204        2.52043737204962        1.21778863048347
H            1.76186989659193        1.94429585165615        2.83112376116788
H            0.76959645213838        0.95491030811522        1.77256382270216
H            3.71399629061857        1.66652173377897        1.24876479779271
H            2.73031934060704        0.68450049167505        0.19949366114760
H            2.42734564377464       -0.98980821089367        2.05224263738750
H            3.42727055271844       -0.01529941331032        3.09946256541304
H            5.31884764974962       -0.23099164945004        1.40581439061467
H            4.32673215275448       -1.31688091274352        0.47779848381881
H            5.23169146422595       -1.79399221592639        3.36069596414988
H            4.53799508721547       -4.26318628074762        2.48128444632819
H            3.38179196654740       -3.34666960762258        1.55854910647497
H            3.73935957851602       -3.24402741563786        4.61489342334934
H            2.42110632529229       -4.05011852486297        3.77352390824560
H            2.54983474774160       -2.29757151583232        3.74191410251739
H            7.10785997104024       -1.86970055828133        1.81233794995546
H            6.27552191012525       -2.95314111852953        0.73689575903867
H            8.26427758614997       -2.68189579895446        6.23424944227400
H            9.31140557046829       -1.83279984630047        8.44812996187547
H           12.07509986883898       -5.43847225787128        9.67130352675279
H           13.35670666956074       -5.22754577701005       11.75371797512259
H           10.69372419951077       -5.00261609273188       13.36244255978088
H           10.44719169515630       -6.40194976215819       14.40073904740217
H           11.65414234606930       -6.46580849911034       13.11704621723831
H           12.05251619773013       -6.73569405592990       16.46774525689030
H           14.65066640359304       -6.27040767184750       18.03792150870965
H           13.40470976051676       -5.25432809786224       18.77814152633325
H           14.89462152032143       -4.52631098032313       18.17080451094154
H           16.55176924060677       -1.29047585386657       16.83225558780682
H           16.43717282320847        0.39580558220825       16.31895712473843
H           17.69172486239211       -0.65404193093266       15.64332678982097
H           16.08531203631347        0.43328118016475       13.27329112709789
H           14.92080238005111       -0.26048386079622       11.02094303883577
H           13.23884048122974       -0.29378251652423       11.54467161930317
H           14.02244171726001       -1.77304229592963       10.97706219116835
H           11.36090055345523       -1.56027114187256       12.60066733329799
H           10.10725099825446       -1.75123769092099       10.50449143931313
H           10.52081272870949       -7.34299092731977        6.13673255717271
H            9.58995003648876       -8.57578832773675        5.31098524368908
H            8.32516820954169       -6.99591364357577        7.56370320054723
H            7.05862003942956       -9.11805988967017        7.95961094733864
H            7.90291025577722       -9.86895445257045        6.63552460768226
H            6.16396460242953       -7.35746984405771        6.31729781337673
H            5.59018627236200       -8.99372345555373        6.00120222981987
H            6.86777128631216       -8.30737175307364        5.01641368292939
H           10.60805263499429       -7.92648475634398        8.28632804553444
H            9.94910591437932       -9.52493494994346        8.08821902109446
H            8.19719103215747       -9.02965518984323        9.81115694658401
H            8.72391165195282       -7.37270983840583        9.90005836429664
H           10.97338625013457       -8.12090103705798       10.72982132049901
H           10.46298489552102       -9.78361848747451       10.63055968073322
H            9.14761605209231       -7.65757035508638       12.41964228902014
H           10.22953938636886       -8.92863491213377       12.98372890689381
H            8.64715953079339       -9.33765243447623       12.32877941218379
H            5.26105732062804       -4.40667986586608        0.13096403299788
H            4.84932774420622       -6.10501885284382       -1.75236077327152
H            6.00772973820820       -8.36357234366102       -1.34252172538474
