126
 energy: -25.026197617409 gnorm: 0.000769703205 xtb: 6.6.1 (8d0f1dd)
C            1.85145957486859       -1.45945912522215       -0.88717109406310
C            2.92092256050936       -0.59349216226890       -0.24150547424012
C            3.33288860684894        0.58913198661965       -1.11803912546421
C            4.41135089885449        1.46122360771048       -0.47396661212035
C            4.82041513900822        2.68816365133417       -1.32712887341956
C            4.02771355539395        3.96091514403667       -0.97754455619373
C            2.52999620172137        3.86092218374497       -1.20540465749178
C            6.32068841134271        2.96635381223567       -1.21538013003856
N            6.72233752926650        4.04923216822078       -2.08989206963963
C            6.96864042342917        5.30322175903157       -1.51480759504894
O            6.84519742612948        5.48158957652004       -0.31559586975273
C            7.35788010424380        6.39592082578890       -2.41166847280506
C            7.64277575237856        7.64116061555201       -1.90857917448420
C            8.00194107332957        8.68762555683671       -2.75385177410275
C            8.07464150611991        8.49306453744959       -4.10378532582123
C            7.79191065334680        7.23339887888434       -4.67113731381713
C            7.85397524330713        7.00153734179336       -6.07909527550184
C            8.18650377652130        8.03391190138831       -6.96863883477797
C            8.45193666103484        8.95098969575377       -7.73329406066405
C            8.72687836401866       10.01419739246436       -8.61027991041639
C            8.17035712487925       11.27301698811409       -8.39464532117574
C            8.42367270563095       12.31238967888284       -9.25679608677906
C            9.24188153300894       12.13264567900257      -10.37044902499097
N            9.48878257516491       13.21114027215841      -11.28005239356738
C            9.58482532680507       14.55436879126079      -10.78198273574318
C           10.22603783243182       14.82021767125268       -9.57479816270657
C           10.31235898535298       16.10688006562167       -9.09401915059924
C            9.76011644900397       17.15157743862215       -9.80859260900244
C            9.12047842729474       16.90446364572611      -11.00731593616240
C            9.03307035736553       15.61871203658037      -11.49036953843319
C            9.60592349197242       12.95827714194000      -12.68436156052636
C            8.86942514821321       11.94179250252794      -13.28959260864464
C            8.98132717136469       11.69776746382666      -14.63689938159587
C            9.83367062455988       12.46047579836144      -15.43174726848601
C            9.94828336214729       12.20153334825531      -16.80831687937232
C           10.03078099494296       11.95973662210784      -18.00454214718796
C           10.10370186110104       11.67813277813235      -19.37673405478325
C           10.52084467320948       10.43387700120295      -19.79967064308975
C           10.59238639023507       10.11355190920695      -21.14948097838033
C           10.24649209352786       11.02962977439810      -22.11315223190233
C            9.81393780940008       12.32170543713997      -21.72642972980372
C            9.44904486251265       13.28451181382826      -22.70136829147005
C            9.03245597058595       14.53044637524884      -22.30240633482357
C            8.96229719954376       14.86186728007852      -20.95185837944915
C            9.30740321260995       13.94903400060592      -19.99631998177672
C            9.74138523287350       12.65569986825414      -20.35287818850657
C            9.51612913756959       12.94478601064437      -24.12683207851360
O            9.22220741431737       13.76215967031557      -24.98150564710902
N            9.94194792472939       11.65292265234183      -24.46646460768845
C            9.94168470699440       11.27855989859083      -25.86738665221142
C           10.89384573679000       12.11612698804494      -26.72684668026265
C           12.36549594496513       11.90844284206807      -26.31980632269864
C           12.72509578667677       12.51612903946563      -24.97453975984129
C           10.66236846842222       11.82218302218397      -28.22191376550167
C           11.30058481720230       12.84085826579900      -29.16599077391611
C           10.98755073948576       12.56469279073920      -30.63701415843844
C           11.61711394906772       13.58280212235597      -31.57385879875166
C           10.32412532134364       10.67864035911708      -23.53289787712916
O           10.72233872536987        9.58400922849215      -23.89242883363983
C           10.56687282958274       13.47995386094538      -14.82863226983086
C           10.45471119681106       13.72466695378998      -13.48092338239003
C            9.80512537773204       10.87533803482744      -10.58137983559610
C            9.55188536521660        9.83633528822267       -9.71855230408347
C            7.56593938676067        5.74267063501515       -6.56215974549472
C            7.21378240609731        4.70255253189551       -5.71121135373693
C            7.13896247797716        4.89424993108647       -4.35276973618907
C            7.43049300927174        6.16999969521411       -3.80981838841242
C            6.75160857262728        3.79332139521901       -3.46718523227140
O            6.45112500931397        2.69880169939339       -3.91183693432523
H            1.56695186670334       -2.30149516311355       -0.25258964230475
H            2.19582235254311       -1.86716246637216       -1.83916674767365
H            0.94765510175482       -0.88307739869442       -1.09242139499308
H            3.80726708336542       -1.19794360916438       -0.00833815585280
H            2.56922927793524       -0.21946838965244        0.72897855341663
H            2.44964859187649        1.18984711987875       -1.35766876359938
H            3.69176476121963        0.22051245491788       -2.08667448885115
H            5.29512212060517        0.84036872582224       -0.28486824701157
H            4.08769974019993        1.79774105533941        0.51692540595073
H            4.62253085787770        2.44816172206272       -2.38481240320203
H            4.43534462624828        4.79362226806601       -1.56497954392098
H            4.23841817610962        4.22834693464359        0.06490692632269
H            2.30637766316678        3.55339664584548       -2.22824949248998
H            2.02869480287899        4.81600810097533       -1.03425207810855
H            2.06985964648868        3.13592943976721       -0.53297040184342
H            6.90550900952355        2.08153450740736       -1.48367083625478
H            6.58474505690437        3.23528498872587       -0.18872248404769
H            7.58162292895508        7.79126135196453       -0.84424263621250
H            8.22233918102352        9.65659600478377       -2.33716537733096
H            8.35053719157243        9.30499840425875       -4.75345533608083
H            7.53069564794795       11.41878118199310       -7.54111981627045
H            7.97788010338403       13.27743491717532       -9.09174910510176
H           10.66091195987247       14.00269119612066       -9.02696080761628
H           10.81199049311772       16.29964088565615       -8.15884238556508
H            9.82713063114946       18.15860968905642       -9.43085999088080
H            8.68773134509214       17.71934050873806      -11.56411308153104
H            8.52709571299548       15.41854945494032      -12.41853825821533
H            8.19823104528229       11.35624551059690      -12.68637063788270
H            8.40765619734317       10.91068629005926      -15.09550124129360
H           10.79122057907745        9.69900905366424      -19.06077492657530
H           10.91748509027917        9.13690624376137      -21.46492321232382
H            8.75771215609956       15.24618965818068      -23.05819646413807
H            8.63123419687799       15.84539480490564      -20.66172361338294
H            9.25044176130500       14.20852930412841      -18.95378134520237
H            8.91343697692238       11.37700893584659      -26.22768171867773
H           10.20242959240860       10.21881919799971      -25.94006341113240
H           10.64235111112418       13.17398168904753      -26.54864937524133
H           13.01907049675350       12.33126832949922      -27.09144008891905
H           12.58051633214173       10.83321247650260      -26.32053773953362
H           12.48718602744180       13.58072814729785      -24.94636179025134
H           13.78738225764010       12.40767353860223      -24.74617253038012
H           12.17204341892382       12.04268379351778      -24.16437598638184
H            9.58455403907010       11.78590128260569      -28.41802720979956
H           11.02965225821717       10.81614825040950      -28.45059128592469
H           12.38675853873260       12.86142540081624      -29.02543144236591
H           10.95957517203818       13.84897056670362      -28.90153847412302
H            9.89900824040317       12.54417143326611      -30.77831715594643
H           11.32603196430563       11.55275126280582      -30.89545605124973
H           11.26265884736172       14.59167464351865      -31.35566762703164
H           11.38825304059717       13.37371930937120      -32.62104129718809
H           12.70358487411667       13.59453126473264      -31.47142659791856
H           11.22747880588966       14.07511447616282      -15.43536689185491
H           11.03214397215894       14.50684039835588      -13.02045264241215
H           10.45125996811424       10.73276009791057      -11.42968531037915
H            9.98897289601308        8.86779677772062       -9.89090285910744
H            7.61302169279247        5.57210959691602       -7.62412589315949
H            6.98890333835550        3.72547408788657       -6.10333363413087
