80
 energy: -16.083304537068 gnorm: 0.000750051166 xtb: 6.6.1 (8d0f1dd)
C            1.47808880714311       -1.07704964025451        0.30436946493101
C            2.91999563796467       -0.59766738935088        0.25837946207390
C            3.25084341729696        0.15631115287262       -1.02980071115472
C            4.69693101196683        0.64459629984648       -1.08030202470213
C            5.07821841594430        1.33766217755027       -2.39930114641355
C            4.25473051144643        2.62854908085301       -2.66198243681429
C            3.12363911032058        2.43099513415013       -3.65785685445558
C            6.57730919674720        1.63450042735390       -2.45784903239097
N            6.96259036077763        2.12684131356573       -3.76562105180215
C            7.22928770207843        3.49561441649754       -3.90588299114763
O            7.12385166171893        4.25715147878239       -2.95977666723794
C            7.61333637032684        3.98078987213066       -5.23450213610701
C            7.92256396844716        5.30490563710374       -5.43001803502197
C            8.27487860922348        5.77643971553769       -6.69126734721661
C            8.31605782533860        4.92775953319078       -7.76138713648691
C            8.00701245595926        3.55996190965218       -7.61413658071525
C            8.03337691165902        2.65059586214349       -8.71525195877950
C            8.35565519905260        3.09294241499888      -10.00624019970967
C            8.61056255298826        3.52074923117604      -11.12375676229408
C            8.87135849431575        4.04786171770679      -12.39994563372084
C            8.35290170024243        5.28711417057171      -12.76923484573287
C            8.59598507640965        5.80886498231517      -14.01667603894282
C            9.36615681522356        5.11086389979265      -14.94489541002813
N            9.60987162710054        5.65279318133713      -16.24639202213375
C            9.69835321667770        7.07393510551014      -16.43036461912388
C           10.35132866603580        7.87451397327909      -15.49660249727896
C           10.43485252940811        9.23654165428574      -15.67624213814602
C            9.86857147667208        9.82374760573625      -16.79064555921553
C            9.21923168936729        9.04318493098892      -17.72675946692911
C            9.13534750519600        7.68083818981189      -17.55016612773352
C            9.74455032199210        4.78559466723044      -17.38210530651446
C            8.95590644888148        3.64472898846735      -17.50733911386575
C            9.08021401628930        2.82246547067913      -18.60413310446068
C            9.99259628040909        3.12423543736088      -19.59601693200188
C           10.78036672729178        4.25330422526929      -19.48747613835911
C           10.65783932571378        5.07747653974181      -18.39203430153006
C            9.88736418440800        3.87246875105421      -14.57421508152660
C            9.64491566610402        3.35111618344120      -13.32581589741539
C            7.72003672008348        1.32506091987740       -8.49630071556553
C            7.37699146288890        0.86159109693492       -7.23297652943179
C            7.33634268464287        1.71183387861075       -6.15321598841057
C            7.65394896332770        3.08101204933973       -6.32957535074176
C            6.96115423467531        1.21315617497488       -4.82859372429904
O            6.64395526328546        0.04814337825011       -4.65792996675551
H            1.25315879970462       -1.61385542201736        1.22849371046675
H            1.25910265807207       -1.74893851163356       -0.52743948898574
H            0.78167994479818       -0.23972140008248        0.23299174629025
H            3.60482671006459       -1.44896557936315        0.36637330812422
H            3.13147510470555        0.04839701451002        1.12057741821932
H            2.56685051597620        1.00563651636724       -1.13839231927372
H            3.05049698425266       -0.48855599710147       -1.89383059350574
H            5.37002124808938       -0.20399626249633       -0.91184043911960
H            4.88679517222284        1.33123727229420       -0.24837654336214
H            4.86860213570642        0.63595787018272       -3.22374961323772
H            4.93061778615043        3.41143635958642       -3.03002074610705
H            3.87423619164156        3.01891075424618       -1.71018090260549
H            3.50957930743835        2.10755151974351       -4.62635357305294
H            2.55754822581874        3.35036250230258       -3.82249966367441
H            2.41960044328485        1.66855762261375       -3.32296490712404
H            7.16375408695614        0.73450316858847       -2.25086651118587
H            6.85016893178939        2.38236710401869       -1.70797837191018
H            7.88522624173496        5.97084663288620       -4.58493715769105
H            8.51502046399535        6.81877618665608       -6.82183233498884
H            8.58717396283661        5.29733933184034       -8.73470942592459
H            7.75252544098226        5.83176297664546      -12.06072391070051
H            8.17952771710388        6.76000978410059      -14.29807498072047
H           10.79937112230179        7.40922208939197      -14.63612286113523
H           10.94455874105129        9.84446204601197      -14.94689016446852
H            9.93410518649452       10.89034501501328      -16.92990253392182
H            8.77627559291173        9.50038187594659      -18.59632838013855
H            8.62504914549507        7.06690119896424      -18.27148329115850
H            8.23741563817869        3.42232075270454      -16.73801030823639
H            8.46303178113607        1.94316220054803      -18.68948513306070
H           10.08859091502498        2.47986961916134      -20.45447087933720
H           11.49243374645504        4.48986738014573      -20.26102315380180
H           11.27188599280757        5.95598338031465      -18.29838940537993
H           10.49561300443098        3.33326826065964      -15.27894586438086
H           10.05299842850201        2.39447287244758      -13.04793771408437
H            7.73984045757752        0.64339825292222       -9.32938140436777
H            7.13249135117876       -0.17522018854044       -7.07729695108458
