55
 energy: -8.221320545560 gnorm: 0.002616603850 xtb: 6.6.1 (8d0f1dd)
C            0.68407058095608        1.18054889975260        0.11982493696710
C            2.18120808189716        0.92385470273439        0.06631451062282
C            2.68937699014618        0.13592686165561        1.27371618429699
C            4.19719013907660       -0.11482118674639        1.23259605443938
C            4.73544913342205       -0.92687053156489        2.43660384401751
C            4.78158683606403       -2.44196043081855        2.18277828016713
C            3.42831147470567       -3.09170395001757        1.95126528382736
C            6.13163411253097       -0.44540106735787        2.84307608622985
O            6.62430099852094       -1.13380107619222        3.96391505218157
C            7.85148752042161       -0.62985162623194        4.30697074449337
O            8.40231404308910        0.28204671385295        3.71303259783825
C            8.48902518214029       -1.25220476013126        5.45573215839052
C            9.67695770547989       -0.84036951715080        5.91442678105006
C           10.39180723327738       -1.38289371378729        7.04056365115242
C           11.57054105806479       -0.76288483219591        7.38931133786834
C           12.58228393895331       -1.11257485756608        8.22050560399471
C           13.12034134910746       -2.29664388928759        7.83965830102038
O           15.42395100925865       -0.18692712882770       16.73966072015874
C           14.38025659755913       -0.63835506053759       17.19860860512833
C           10.52983506360811       -2.88650358795482        8.93165408595831
O           10.05948148385011       -3.73362301442622        9.88961681839162
C            9.00121503160736       -3.14391934424867       10.60949863399936
C            9.89601954521457       -2.47758462302096        7.78181991091310
O            8.72501091103635       -3.12977490773846        7.37288798561606
C            8.75232082145557       -4.52733566245560        7.55409722749132
H            0.33291844244459        1.74387961072103       -0.74730596213124
H            0.41267865442182        1.74832889386636        1.01146513341119
H            0.12350016322425        0.24468842675412        0.15201842983121
H            2.72550701016244        1.87491975649443       -0.00091657089749
H            2.43904907089635        0.38297965423442       -0.85363669535562
H            2.14681775875848       -0.81227646716164        1.34365158178917
H            2.43391254594028        0.67320544065258        2.19516077347253
H            4.71025937751045        0.85362384966008        1.19244119778001
H            4.47390742622081       -0.61835979874695        0.29994638391881
H            4.06952357656427       -0.74836841242011        3.29555938116524
H            5.27859197326584       -2.91402392077687        3.04034637826471
H            5.44559167230681       -2.63455910087434        1.33153993162176
H            2.73660314561546       -2.86336880201454        2.76390530412184
H            3.50585211463848       -4.17904577233920        1.88401897221436
H            2.97303098262509       -2.74819686050327        1.02187970679256
H            6.13350921980868        0.62428634165103        3.08543982601947
H            6.84564066050586       -0.59620176117609        2.02503803310983
H            7.97122270743379       -2.06241184805242        5.93107990737278
H           10.13984836697107       -0.01814562032773        5.39465262035307
H           13.02264574913625        1.34785916260129        8.38835385097073
H           14.01288546951554       -2.44621726996580        8.37943908863256
H           11.64298201445855       -5.18691044369103       10.18449962854969
H           12.30834927076210       -0.92018444129613        9.89541604639893
H           13.77711325037615       -0.17461220577652       17.92882539152934
H            8.60367601532445       -3.87113999561314       11.31951903028891
H            8.21343125763688       -2.83431774822042        9.91924364411475
H            9.37409969950115       -2.27264572730397       11.15126865011520
H            7.88336700356522       -4.96337005112939        7.05954866322730
H            8.72070341618353       -4.76657524317621        8.61742844396418
H            9.66362514292278       -4.93261205597754        7.11033783254888
