47
 energy: -7.937922352569 gnorm: 0.000586502082 xtb: 6.6.1 (8d0f1dd)
C            1.10915952772886        0.05964942752571        0.52085034054411
C            2.60404221141938       -0.14767214741277        0.34133875772965
C            2.94877241649212       -0.87946977392642       -0.95654223687259
C            4.45063907903289       -1.08244882029849       -1.14065074242749
C            4.84865154138985       -1.93726541617132       -2.35757413491966
C            4.42480789509929       -1.32180015511855       -3.71176165277917
C            3.06240797379757       -1.78575259748780       -4.20476252237106
C            6.35994863322207       -2.19024164300647       -2.35361804303065
O            6.76658991967484       -3.00496780363380       -3.42322104167560
C            8.10053814555960       -3.28955509499572       -3.29569102703636
O            8.79480796230115       -2.89295103683278       -2.37629612625236
C            8.68281897638859       -4.12280455384953       -4.34589198162451
C            9.94866418082250       -4.53672332671379       -4.28065259975020
C           10.62147823992463       -5.36138154685325       -5.27649788418478
C           11.81806058139714       -5.99939102751952       -4.95078702476804
C           12.47239638076596       -6.78067354255655       -5.87777894686731
C           11.95338840107593       -6.93543001867126       -7.14164292112793
C           10.76240247365532       -6.30679754003181       -7.51177437551591
O           10.30552768315039       -6.50583287850190       -8.81968421400452
C            9.12390223623727       -5.81487428235201       -9.14435951509313
C           10.11121276345407       -5.52360030634184       -6.55916320121897
H            0.87621532209802        0.58189001182378        1.45126384428565
H            0.57823218780875       -0.89374989605126        0.53777004397229
H            0.69063084918324        0.64645952110019       -0.29868294690853
H            3.01246630460822       -0.70747804015827        1.19277311911765
H            3.12480633201674        0.81854401807008        0.36136702871246
H            2.54202726712050       -0.31652078939110       -1.80364495304414
H            2.43993908359172       -1.85032270487899       -0.97701360928593
H            4.86186213006011       -1.54282462634371       -0.23480313213879
H            4.94662247178694       -0.10862259917000       -1.21305758206586
H            4.35730737262334       -2.91886265671328       -2.27134062676695
H            5.18412171954472       -1.58503130897266       -4.46033398293288
H            4.46543659106509       -0.22822113636872       -3.64075038662675
H            3.04425012644342       -2.86766679789986       -4.34291948803631
H            2.79948834853365       -1.33142640062628       -5.16215904085813
H            2.26669272855669       -1.54233952316662       -3.50184833518579
H            6.68296877545193       -2.67622457304842       -1.42460243759171
H            6.91072062953928       -1.24609932105575       -2.43382385902544
H            8.04810116306374       -4.40535375959795       -5.16320341161299
H           10.51862541538499       -4.24304047664487       -3.41617300929573
H           12.22401107874771       -5.87930119223197       -3.96107747477549
H           13.39405090082029       -7.27170193950877       -5.61162218118983
H           12.45727960551124       -7.54160746654120       -7.87336570617872
H            8.87413700961613       -6.02650846246360      -10.18456000631496
H            9.27778763932348       -4.74120612603101       -9.02954556738593
H            8.30679476319847       -6.15638751939544       -8.50784158346774
H            9.20269696170621       -5.01961214999042       -6.82384362215298
