82
 energy: -17.547421055303 gnorm: 0.000308992914 xtb: 6.6.1 (8d0f1dd)
C            1.11436506713332        0.19979388750981        0.42865562381948
C            0.27976645935446        1.11460428322332       -0.09737015444669
C           -1.16515425299736        1.09049524152572       -0.00197010450521
C           -1.82922750755706        0.13798638248461        0.74654968050461
C           -3.20978851538758        0.15711988923676        0.79578979685853
C           -3.95759506027502       -0.81920208713359        1.56098918367898
C           -3.42565330668901       -1.72878787917157        2.39761544445045
C           -4.17304407515209       -2.71952437579429        3.14547640407528
C           -3.51117865171638       -3.51031679273386        4.09059285445534
C           -4.18304683727995       -4.46697909795896        4.80835112977202
C           -5.54611497738243       -4.68283742467885        4.61035738953531
N           -6.24146330875853       -5.69041394570434        5.35013134987328
C           -5.85977220252258       -5.98048233075375        6.70368747627530
C           -5.85000904749180       -7.29032568743163        7.17593831101499
C           -5.48014697205782       -7.56610137840023        8.47300142336964
C           -5.11478366398370       -6.53982573520770        9.32224965014992
C           -5.12125962634570       -5.23505511275083        8.86915411725428
C           -5.49022062778847       -4.95684282578044        7.57247756745194
C           -7.30610225953641       -6.43263912014212        4.73654845234628
C           -8.42640232244387       -6.81009070106345        5.47218522952667
C           -9.44346031901035       -7.52763870331308        4.88400076490588
C           -9.36057808209425       -7.88212025298046        3.55157044371831
C           -8.25500585095457       -7.51647523932818        2.80881211478281
C           -7.23674975216822       -6.79910164793120        3.39483421831222
C           -6.21041208733688       -3.89781876105534        3.66840697519413
C           -5.54162356366983       -2.93637543708015        2.95237804789103
N           -3.89530147780475        1.08515757570829        0.12033667449520
C           -3.15944950387857        1.94371371253064       -0.54907326200891
N           -1.85304936092608        2.02658904480522       -0.66389670074545
C            2.55974808386209        0.22818645797203        0.33233423629972
C            3.30354937422803       -0.83465294176183        0.85568039999237
C            4.67348364325892       -0.84285875536290        0.78455539775488
C            5.36486415604320        0.21233995191575        0.19104298602705
N            6.79314375574161        0.20261217923364        0.12045063118479
C            7.49823068992041       -1.04064077067678       -0.01972350755321
C            8.68913596909955       -1.26448308597415        0.66619794087414
C            9.36091169970359       -2.45894901083613        0.53531148246133
C            8.85721279758060       -3.45071231191858       -0.28359896266028
C            7.67852692824067       -3.24266615164665       -0.97296027896018
C            7.00482568786405       -2.04922661369408       -0.84347776240239
C            7.53215328953869        1.43003601873087        0.21170604236011
C            8.68663074226304        1.62213045248986       -0.54266064339719
C            9.40066046239022        2.79526362739062       -0.44739825223486
C            8.97600551015934        3.79752435827460        0.40289320396288
C            7.83353446781694        3.62159404724492        1.15888479795296
C            7.11804394418827        2.44928139565781        1.06547908843075
C            4.62803569441797        1.27564780399756       -0.32973741778667
C            3.25697701022678        1.28503151818733       -0.26295060012461
H            0.69520887730773       -0.63612593741964        0.95737625740951
H            0.68878418716516        1.93552027028520       -0.65538613123329
H           -1.27940156716641       -0.61249645779939        1.27867766775807
H           -5.02410884113192       -0.77708024850977        1.44415478922945
H           -2.36196456079726       -1.72922187957189        2.54869956466596
H           -2.45739407980444       -3.35957228872880        4.25143362575988
H           -3.66042744455019       -5.07637582292554        5.52466442270508
H           -6.12706126803605       -8.08573406148105        6.50641160048279
H           -5.47416977112486       -8.58448187378321        8.82571895229921
H           -4.82508534765680       -6.75683214795296       10.33737764264258
H           -4.83815430813770       -4.43345227824861        9.53162458268324
H           -5.50610232209062       -3.94191205483906        7.21541455893025
H           -8.48794965907513       -6.52431207767849        6.50767968507250
H          -10.30600080225531       -7.81247545680340        5.46402432586388
H          -10.15736170008286       -8.44374941781454        3.09199981363341
H           -8.18846227640167       -7.79436602827394        1.76961108442680
H           -6.36757303131154       -6.52113429181033        2.82471330026074
H           -7.26450915088344       -4.05247318800975        3.51783006351666
H           -6.07678285119082       -2.35228819202138        2.22545645118909
H           -3.71436732758090        2.69718285654842       -1.08999338145941
H            2.78518809390780       -1.65627506623755        1.31968824222915
H            5.23445680199931       -1.66149884652556        1.20015654774395
H            9.07116698625054       -0.49091945962108        1.30912629669466
H           10.28017078394921       -2.62097429305410        1.07405499440291
H            9.38342002658707       -4.38581427650197       -0.38451965250312
H            7.28594956846167       -4.01515431465516       -1.61383848867720
H            6.09078026046657       -1.87692553070899       -1.38447085577854
H            9.00786521131436        0.84002645973675       -1.20813194256873
H           10.29208451989295        2.93184649672445       -1.03753121951911
H            9.53583759220802        4.71543959018285        0.47715484624380
H            7.50263671719414        4.40222382494023        1.82424462079271
H            6.23424062949021        2.30114602429442        1.66105564086061
H            5.15424291751425        2.08821077867414       -0.79933635900294
H            2.71542091574321        2.11971553973741       -0.67010043094419
