47
 energy: -7.494889965428 gnorm: 0.000421418014 xtb: 6.6.1 (8d0f1dd)
C            1.04264146259979        0.01678087776603       -0.33779201887502
C            2.54020469679949        0.25614542421145       -0.23554645451850
C            3.00183604850171        0.51447251471644        1.19942240256806
C            4.50367074666438        0.77006247296078        1.30216347602296
C            4.99871855130062        1.19919259648889        2.69555194252351
C            4.77302908449848        0.13023690925981        3.79035158350857
C            3.44444992753878        0.25304440291490        4.52148381027196
C            6.48514949952192        1.56849126652394        2.63633230093657
O            6.96494377744241        2.06503477633673        3.86084892658953
C            8.32633675974629        2.20975599225220        3.79221702902832
O            8.99010322773503        1.92429290224711        2.81160011225910
C            8.97921877787667        2.73821787097915        4.98969696052469
C           10.30253185641850        2.87975296911664        5.07152909386787
C           10.94128932490917        3.38351916867218        6.21794204008381
C           12.26461346005180        3.48309506349757        6.45768238797264
C           12.83979275058262        3.98488144508328        7.61180093989627
C           12.21880549626439        4.48663878895675        8.74042917272446
C           10.89719003980586        4.61548946549291        8.97582561423209
C            9.81959333652463        4.31535813975543        8.21389245471376
O            8.62681488836539        4.57484161261984        8.77652144026277
C            4.82517874579306        3.49296761330773        5.76721671986979
H            0.72579611089199       -0.16702647371974       -1.36664926300269
H            0.47977768191841        0.87634076555371        0.03030111221531
H            0.73902895099081       -0.84554037161033        0.25827262484242
H            2.83015514634793        1.10529675120345       -0.86813391966990
H            3.08974867218813       -0.60206349197132       -0.64401081648701
H            2.72525454349898       -0.34192090433773        1.82398255142559
H            2.45344017309488        1.36941067617987        1.61241874460898
H            4.78326464557936        1.54161956438545        0.57514559229407
H            5.05191275892252       -0.12513587263611        0.98926017807704
H            4.45022882067223        2.10559267433742        2.99449620646277
H            5.59039673086364        0.20971649485096        4.51976388498440
H            4.88600655363931       -0.86722544631010        3.34889538452703
H            3.35251243343748        1.22481702504404        5.00891487257155
H            3.33466850258267       -0.50958271052133        5.29535865248752
H            2.59366225506906        0.15437702544148        3.84842037294864
H            6.68145218329657        2.33009599378367        1.87237285194837
H            7.08586722881133        0.68847178992578        2.37850322325361
H            8.36306440728860        3.01467034006955        5.82488604474228
H           10.90377777924818        2.59311855295390        4.22646216355755
H           12.92325890501895        3.13458638166244        5.67840179363066
H           13.91998994898050        3.98132179024839        7.63452471819186
H           12.86049546155988        4.82112887380992        9.54045763859696
H            8.52625796744873        4.19018514354866        9.72907983851209
H            7.82538496908003        4.31796215577969        8.17658491659746
H           10.19140080065258        1.62931458471083        1.19864855900971
H            5.50305391021129        3.05297641432347        5.13770213924148
