55
 energy: -9.075891189324 gnorm: 0.000396146133 xtb: 6.6.1 (8d0f1dd)
C            1.40477298771909        0.52555992434687       -0.35476536785646
C            2.88221221421493        0.16920656491663       -0.33029077165122
C            3.17706018829886       -1.07141227369145        0.51386333175416
C            4.65797843421885       -1.44367878627381        0.52803180947921
C            5.02909394106662       -2.59126473533782        1.48452616143677
C            4.32761247407699       -3.92861648436923        1.14944289472586
C            3.00869157460125       -4.13867293857645        1.87763981091038
C            6.54672842709145       -2.79988719839885        1.50322867531838
O            6.93024067460168       -3.79135699110854        2.42037801850337
C            8.27716893884266       -4.02223541551955        2.30791448133975
O            8.98263264178070       -3.47768812903220        1.47530168763837
C            8.82487116489013       -5.00968773617953        3.23706797216891
C           10.12237221580287       -5.08128497784604        3.58820604858147
C           11.14219379838500       -4.10226479530800        3.23217699070286
C           12.31410173540775       -4.52287298118886        2.54868882220417
O           12.51603528070737       -5.86881070954723        2.16446854400101
C           11.48118606778368       -6.38698144476789        1.35140259912590
C           13.27774299033219       -3.58156761309967        2.21205305588791
C           13.08716279815540       -2.24270291366311        2.47292773179257
C           11.94498712545698       -1.79319855863630        3.11154719803123
O           11.78460203316395       -0.40873784736435        3.32454990382560
C           10.45906799072099        0.02139558818684        3.15664977084137
C           10.97857868417888       -2.73404021814574        3.55165282798150
O            9.90561632562299       -2.26209320529257        4.33068446308084
C            9.76724953655526       -2.90226874798172        5.58344842256230
H            1.20653120678241        1.41268755971026       -0.95984820876003
H            1.02993537670429        0.72358863384561        0.65085547954187
H            0.80859728059952       -0.29130445330618       -0.76509841573967
H            3.46857950687507        1.01535150629313        0.05103181631080
H            3.24914900026855        0.00758430625040       -1.35228416019008
H            2.58605105534726       -1.91170233446828        0.13325469775320
H            2.82799802150459       -0.90752221035913        1.54021331709265
H            5.24713512264917       -0.55764217912054        0.79146552188534
H            4.98021929128936       -1.70692201647530       -0.48512833007326
H            4.73032900327318       -2.30583714852253        2.50519621409668
H            5.01191306175511       -4.74779734309070        1.40811622846684
H            4.19395146104060       -4.00479418127762        0.06374852508520
H            3.15302141562367       -4.12822873145741        2.95931318415995
H            2.54943520738097       -5.09523531523957        1.61947810590009
H            2.28348577510559       -3.35923727056384        1.64643637683620
H            7.07986811104039       -1.87961627257993        1.77125100510550
H            6.90552362296797       -3.10730712160604        0.51388213753374
H            8.12965328254420       -5.73570539248798        3.62012186706242
H           10.44967157706956       -5.92992505828891        4.17088752090064
H           11.92225636148090       -7.01832385027148        0.57948684506975
H           10.93304283771813       -5.56791279285340        0.88136692705841
H           10.80210433626736       -6.98438836553911        1.95977335498310
H           14.16058243227229       -3.91894993344397        1.69911119494670
H           13.82061463420428       -1.51632445527621        2.17112641580451
H           10.45146706676698        1.09619946337033        2.97142787851253
H            9.89858894031439       -0.19905333818874        4.06605260875569
H           10.01021264584157       -0.50542315468441        2.31214032496350
H            9.31605356766697       -2.20111819716725        6.28607449496662
H           10.74673648742884       -3.20568393960715        5.95532061601211
H            9.11828206653213       -3.77184378971928        5.48366137355570
