55
 energy: -8.561047445023 gnorm: 0.000869857412 xtb: 6.6.1 (8d0f1dd)
C            0.73626879409422       -0.39821007335321        0.23397563216171
C            2.24495746482352       -0.28794848495145        0.08481537936060
C            2.69063852288746       -0.21765805467517       -1.37629577891624
C            4.20434131916052       -0.09144981947387       -1.53186020173851
C            4.71571287231772       -0.15795465417215       -2.98247639698622
C            4.16405827760914        0.97075219061496       -3.88520136560538
C            2.88804588928906        0.60492265434905       -4.62823491294625
C            6.24729027859021       -0.13198177881448       -3.00743847087820
O            6.75781687470247       -0.24122326923883       -4.31113864593928
C            8.11568193431718       -0.04767134249386       -4.28854931019895
O            8.73179983908312        0.22667252260362       -3.27276939558414
C            8.77863133607468       -0.15019891398469       -5.59020442366676
C           10.08568849810820       -0.40705812206258       -5.79278133364808
C           11.05930753837269       -0.78741946035083       -4.77986122731560
C           12.30130594808131       -0.20968999206534       -4.84229033125095
C           13.36010131563385       -0.43305360102268       -4.05797932400608
C           14.38781642198630        0.37108113718508       -4.47677966176120
O           15.17115810974737       -1.71376085738634       -1.64716995154415
C           15.83451931252244       -0.71911118926035       -1.16274900332808
C           11.49179764345187       -1.77230439473367       -2.60468019685190
O           11.18079904521730       -2.40879146666652       -1.44590091271388
C            9.81506244459268       -2.27563955586416       -1.14164439171597
C           10.73643391455239       -1.71059055873067       -3.75318065747670
O            9.64325744500714       -2.59252961295041       -3.83140686317475
C            9.50174219214346       -3.24067307251897       -5.07851434430273
H            0.42960046998350       -0.44565013527525        1.28101345418587
H            0.35523400118056       -1.29309679592917       -0.26097858171164
H            0.23155931786633        0.45788979705155       -0.21708967128960
H            2.73622309443534       -1.13921588551987        0.57376337614967
H            2.61382037946524        0.59739902358462        0.61891481197588
H            2.19521399650754        0.63127633731807       -1.86002845276287
H            2.33764521372548       -1.10750887793601       -1.91068473834865
H            4.69157269169687       -0.88007920456249       -0.94685820959489
H            4.54236338589956        0.84685883474188       -1.07910328728888
H            4.40122995199309       -1.11776182915391       -3.42094092208480
H            4.93996049480391        1.23340534850376       -4.61671330028361
H            4.02322390831298        1.87774521197092       -3.28534083358269
H            3.04449513681848       -0.26334791874407       -5.27049089077450
H            2.53917459445436        1.42127715015681       -5.26403817470328
H            2.07414326712969        0.35497178657980       -3.94852401682293
H            6.67674262413191       -0.94914796663745       -2.41553316461265
H            6.62154604738873        0.80797355804958       -2.58491626465683
H            8.14849759237443        0.04129559393780       -6.44141614140837
H           10.46983365059127       -0.29817370494473       -6.79621026729412
H           14.69439737561873        0.05526284354130       -5.45702815395818
H           15.20901043261649        0.25891505474776       -3.79419320296241
H           17.01107923488827       -0.49988426559649        1.87187783872527
H           15.52559014851548       -2.65093383527578       -1.71704944604662
H           15.49362017083849        0.27474346117120       -1.09614417230103
H            9.65221261333019       -2.53165658865449       -0.09361436401842
H            9.24460077971507       -2.95067172336527       -1.78240224910039
H            9.50368955191058       -1.24451096239564       -1.33043977464725
H            9.03457512451152       -4.21227914776146       -4.91517465082423
H           10.48133092378400       -3.38475638981924       -5.53629337121175
H            8.86549060311585       -2.64604902520508       -5.73318709552708
