47
 energy: -7.934322711466 gnorm: 0.000572794951 xtb: 6.6.1 (8d0f1dd)
C            0.96494866434355       -0.26136360001233       -0.40037428249032
C            2.47660170405888       -0.10462015001801       -0.38236512437348
C            2.91817619179919        1.35250551891846       -0.24046975725073
C            4.43608304152010        1.51221611166425       -0.20630369435671
C            4.93396338984834        2.96859266539057       -0.18665096255062
C            4.45877423386025        3.76507884949099        1.05223284630874
C            3.17020261162850        4.54281846024598        0.83252603169815
C            6.46334298062138        3.00960382162977       -0.26878874322225
O            6.95518483772010        4.32510594308076       -0.31733004439286
C            8.31977652130421        4.31649374615384       -0.17270632802119
O            8.96303212624618        3.29604671183561       -0.01386896700796
C            8.94680623527555        5.64419076206107       -0.20482543849909
C           10.24327162234222        5.94534770879206       -0.37095827824298
C           11.36636663214697        5.04905073438977       -0.64558341615830
C           12.65505110490388        5.42432087690331       -0.26367146364390
C           13.73759302093903        4.61808523709470       -0.54262929540334
C           13.56150863167176        3.42405883564956       -1.20185622601163
C           12.28940815830482        3.00863571903914       -1.59958306886716
O           12.16665328843126        1.76948763471377       -2.23918743003309
C           10.84429955358487        1.29370180391396       -2.32540675320031
C           11.21263412873455        3.85137106211261       -1.32970571165260
H            0.66186847535590       -1.30593974299169       -0.49854547260438
H            0.52098157084257        0.28908266256874       -1.23162818758386
H            0.51721663479323        0.12585338620321        0.51654258848571
H            2.91178202350262       -0.52861580582193       -1.29673438683952
H            2.90804896257288       -0.69497575691452        0.43656964875336
H            2.47942622982296        1.77173008526971        0.67169508333124
H            2.50297516150712        1.94435052774296       -1.06480509164688
H            4.86999956837099        0.99909095933054       -1.07242262510758
H            4.84044429250689        0.98743920552100        0.66605433606043
H            4.54812820512165        3.48244943949858       -1.08070932559328
H            5.25529379095178        4.46558041612899        1.33640055503925
H            4.36470146627764        3.08369917697667        1.90615180173216
H            3.28504607910521        5.27023400895968        0.02741542660233
H            2.86867491553328        5.09309493095409        1.72629259124667
H            2.34064486584575        3.89235032274513        0.55753340528489
H            6.83555452621319        2.48214234365569       -1.15480710520321
H            6.90606589121208        2.52364633846570        0.60854206513711
H            8.25428496691467        6.45481283863507       -0.05595727650547
H           10.51490497805810        6.98711951264954       -0.30258211489976
H           12.79617935055572        6.35576232040097        0.25716878046835
H           14.72591256664743        4.92252752962815       -0.23937430532365
H           14.39823883505271        2.78234619562852       -1.41365974074333
H           10.86865043648419        0.25668277633322       -2.66168992446331
H           10.28311401378508        1.88834528320235       -3.04714943716993
H           10.37115415282443        1.33924735975220       -1.34234742092620
H           10.22679936085776        3.56690523241867       -1.64152776015193
