64
 energy: -11.501869131873 gnorm: 0.000348195683 xtb: 6.6.1 (8d0f1dd)
C            1.22722091499485       -0.38267991362388       -0.99312642672075
C            2.59737784880368        0.16804008618744       -1.35407037501118
C            3.05739493368887        1.27692584587960       -0.40642584023053
C            4.44087443049064        1.81964604736892       -0.75610610354680
C            4.91390569741264        3.00120635431404        0.11053398542558
C            5.01122639441317        2.65782589853441        1.61687143866361
C            3.75771191118351        2.99621050393602        2.41020103310307
C            6.26692041562491        3.51699780731920       -0.38940340852617
O            6.73924530899476        4.60030537342789        0.40051790993358
C            8.07248077000857        4.95802609250738        0.16372583764519
C            8.82245243732210        4.52463879633723       -0.95053861529016
C           10.12726395830944        4.89861220462370       -1.12385685010482
C           10.74591503415243        5.72989638684814       -0.17870495962161
N           12.05521566903587        6.17003761987803       -0.22983345326338
C           12.35889122124169        6.91792597731817        0.79434819049570
C           13.65668072866592        7.49181813938895        0.99093530804287
C           14.05995099306636        8.23397928303935        2.06932387240819
C           15.40073258625414        8.67168592239300        1.99506279425400
C           16.05415026572068        8.28115781423855        0.85561438390265
C           17.42647734578319        8.58296745391198        0.48485965291331
C           17.91365291371426        8.20361280850399       -0.76835471226466
C           19.20064687745343        8.48808207610921       -1.14883094357509
C           20.07140567844733        9.16646891299055       -0.28987442060298
N           21.38928826978190        9.46813009658297       -0.68144117127941
C           21.85716739904034        9.22397412990115       -2.04511144772679
C           22.34796046069836       10.06101378772492        0.24945752146852
C           19.58686344114689        9.53887288986231        0.96879215925672
C           18.29753142568728        9.25669731187186        1.34647241672400
S           14.97219401507411        7.33652123964183       -0.13992973789148
S           11.01818873298782        7.16250089691297        1.92921565392239
C           10.00630371330146        6.16700727149087        0.92793685273131
C            8.68660417562341        5.79257915791753        1.09304105676523
H            0.91089576886089       -1.17583932521126       -1.67424298110576
H            0.46668455650514        0.39964334401242       -1.02414133540075
H            1.22173990061580       -0.79624422044470        0.01706660293676
H            2.59319200077612        0.54860951186929       -2.38399144720383
H            3.34116431628131       -0.63983508697432       -1.35368708159159
H            3.05739980757634        0.89200937123760        0.61945437303188
H            2.32662706339690        2.09448734518946       -0.41302512500615
H            4.45290470692228        2.12200576224454       -1.81001142096149
H            5.17794703833629        1.01207388036889       -0.68478439592754
H            4.19128355348629        3.82558023260800        0.00518401373701
H            5.86146250055121        3.20943366354041        2.04066640600848
H            5.27660563460466        1.59978079216517        1.73182276654283
H            3.53211294927936        4.06243600825257        2.34906314859642
H            3.86503742976970        2.74678103391620        3.46807922902739
H            2.88154056561262        2.46491135956552        2.03911899293621
H            6.19760079032275        3.85154624185815       -1.42954639897191
H            7.00702937113440        2.71228346438047       -0.33864953800398
H            8.35663269226495        3.89480415502741       -1.68606549575279
H           10.69540854345489        4.56647043438622       -1.97449601250833
H           13.40486776186711        8.45827812755214        2.89669099964481
H           15.86078644336851        9.26956352268017        2.76553759119769
H           17.25533518727246        7.68135541412156       -1.44021265818358
H           19.54918111533802        8.17893219420286       -2.11802744143301
H           21.16054627450587        9.65462668688150       -2.76212835730536
H           21.93923158560867        8.15375232734899       -2.22572760334998
H           22.83230348467731        9.67721630369477       -2.21210072592828
H           22.39064875967316        9.47487801471219        1.16565750834207
H           22.05246851582266       11.08031935059137        0.49125771530509
H           23.34743936273070       10.08528171627390       -0.18027163829946
H           20.23480707047854       10.06474130422882        1.64711265291124
H           17.95019385048037        9.55519742586160        2.31961543895615
H            8.13042543030947        6.13343537047474        1.94592061573804
