60
 energy: -10.871627469028 gnorm: 0.000398032205 xtb: 6.6.1 (8d0f1dd)
C            1.24309950635204        0.29450892158718       -0.84431566323353
C            2.64874637248528        0.85162316837230       -0.68772954639781
C            3.10143435337465        0.91357668204958        0.77192876585598
C            4.52205630354341        1.44997365118505        0.92984532330452
C            4.99465749495887        1.62874115912520        2.38461276636024
C            4.98805757557831        0.31362324272675        3.20038621717153
C            3.69849452510620        0.06826252248566        3.96993484255657
C            6.39690938773753        2.24540769203235        2.41208400465221
O            6.87763571634454        2.39835663562955        3.74083274695977
C            8.23522114007141        2.72719859049338        3.83621403779268
C            9.02033694994522        3.17282222168085        2.75114326388566
C           10.34729686905648        3.46946022987098        2.90268786637423
C           10.95400321202217        3.32984109359521        4.15934413645918
N           12.28307186033756        3.58171156738822        4.44297326658017
C           12.56750359445979        3.35158629278330        5.69426789001752
C           13.87767306679736        3.52614922522727        6.24756036247575
C           14.25644406843224        3.25544960300795        7.53525349352880
C           15.61711193388225        3.52616880981738        7.80177960981579
C           16.31109550542520        4.01397648613041        6.72647073580264
C           17.71423005053057        4.39430229607322        6.68662912831463
C           18.25635782965945        4.95201325939938        5.52731769787112
C           19.57402751461819        5.32688262632535        5.46931924584172
C           20.42140850034105        5.16198434254124        6.56907451232043
O           21.74894306811173        5.57401065817560        6.42749504773237
C           22.55110924313340        5.38276634344425        7.56746008573079
C           19.88047707890240        4.59864699876643        7.72964710230811
C           18.56032961530876        4.22546803598908        7.78604073346728
S           15.24235354276836        4.12861571088230        5.34964257300030
S           11.18379335795371        2.80163347487137        6.65608469900244
C           10.17981339369527        2.89254551742463        5.24175621166256
C            8.83844714978291        2.60174041428552        5.08429428007316
H            0.93242431372775        0.25210269798494       -1.89050115302775
H            0.51428156503119        0.90625331788903       -0.30977920500264
H            1.17226540908524       -0.71681722275782       -0.43995059210358
H            2.70990859283370        1.85457015357218       -1.13010008587837
H            3.36126329456015        0.24475180692605       -1.26188371850436
H            3.03209202476224       -0.08871293324297        1.20890276773480
H            2.40503446615275        1.53440633264161        1.34796592878475
H            4.60366012692524        2.41055738586133        0.40763332406783
H            5.22157031389856        0.78539992738973        0.41083860808802
H            4.31723070212114        2.33446050466806        2.89034587185916
H            5.82556752530368        0.34684930758411        3.91038872930448
H            5.21611980598329       -0.52766087206520        2.53482054413819
H            3.50357317849041        0.87822914232300        4.67505578869776
H            3.73701575962727       -0.85999801614208        4.54392330505843
H            2.83257320122949        0.00582896869807        3.31150330346356
H            6.40151706512833        3.22685916791807        1.92692702267493
H            7.09358609119733        1.59534556561103        1.87354478376984
H            8.56458147970734        3.29293713655808        1.78552466769568
H           10.94186239220350        3.80948864427869        2.07352254226146
H           13.57010318388023        2.86968593349937        8.27287664164802
H           16.06220119756438        3.36784384259719        8.77107400439989
H           17.61840118532483        5.08803795145020        4.67182821488048
H           19.98351725257950        5.75900246617241        4.57351625970677
H           23.55626448582684        5.74398202642385        7.34746415786021
H           22.60221260456083        4.32104571970754        7.81159638794747
H           22.14735741902318        5.95088374809429        8.40632670612987
H           20.50596809951732        4.45513181197810        8.59172884125662
H           18.16874797759396        3.79345895489644        8.68976915342636
H            8.25614950544777        2.26552905611071        5.92140176239997
