56
 energy: -10.272796381425 gnorm: 0.000508740580 xtb: 6.6.1 (8d0f1dd)
C            1.05582408964268       -0.41634984583709       -0.91854617283412
C            2.51525061970052       -0.14498826657389       -1.24658599569293
C            3.03562901414531        1.14192671031986       -0.60477778881169
C            4.50622143844831        1.40947127144047       -0.91679910071565
C            5.04564214957057        2.75303359314543       -0.39313887270095
C            4.96999726341749        2.89009770606874        1.14682590101703
C            3.69794038820764        3.55611183135379        1.64979937169564
C            6.49018676342694        2.96568199706225       -0.85614005624892
O            6.98951823856367        4.22603465869751       -0.43076140092553
C            8.34481558716286        4.44485275756032       -0.69727099557128
C            9.17623379722421        3.55063998742075       -1.40615017740955
C           10.49936373319583        3.82356025872872       -1.62327252252591
C           11.05552242126036        5.01622332698742       -1.13714378685865
N           12.37211913501654        5.41080344023814       -1.28438753030615
C           12.59937708109392        6.56711110300486       -0.72616953331379
C           13.88219961326356        7.20640164112770       -0.72699827235199
C           14.18400457183518        8.40912484892772       -0.14523501069823
C           15.53161590062818        8.80050639234415       -0.30349921173530
C           16.29317236879764        7.90857560559262       -1.00995099091647
C           17.70693804847989        8.03133249657166       -1.34070216266183
C           18.34829847136935        7.01895404405810       -2.05508666822148
C           19.68154374123173        7.11639306835944       -2.38498736790134
C           20.40653357835333        8.22900652868758       -2.00821285125881
C           19.79214587084806        9.24236997727207       -1.29963643472808
C           18.45841286145069        9.14769423075037       -0.96790484852935
S           15.30438954212739        6.54825813514588       -1.48336609601842
S           11.17474527080381        7.28819922449404        0.04288075674908
C           10.23466009145913        5.90985815879823       -0.43715102738246
C            8.89928795955613        5.63008460663493       -0.22253143588417
H            0.69677809394445       -1.34050812319686       -1.37680051245693
H            0.41491807026032        0.39462176611591       -1.26918491701099
H            0.90325632802224       -0.50360893246016        0.15875647989770
H            2.65485522458777       -0.09093814188933       -2.33431458648080
H            3.13875329883920       -0.98867671198352       -0.92228319475771
H            2.89033824059013        1.08377895043545        0.47965965295883
H            2.42670926893789        1.99111067633573       -0.93734665847536
H            4.65660983567657        1.36360549732336       -2.00195025038028
H            5.12049094548936        0.59810224733877       -0.51098847708218
H            4.44292137632150        3.56538403198111       -0.82855921294198
H            5.83579929668948        3.47776168306109        1.48129569490876
H            5.10532119436605        1.90306447256941        1.60563952288461
H            3.59532291855628        4.56277812370024        1.24065787542353
H            3.68815528864051        3.64505017698012        2.73831420921213
H            2.80377145775224        3.00368342921706        1.36230952746912
H            6.56315043984558        2.91670495356105       -1.94752062345243
H            7.12885406836808        2.18354360118344       -0.43447136534705
H            8.76184254507907        2.63641565434125       -1.78960640340449
H           11.12950235908378        3.13928300626019       -2.16305931879331
H           13.45066146113339        8.99755392371600        0.38393186778139
H           15.91996273750884        9.72218739454760        0.09963828598886
H           17.78046238390913        6.15347382014926       -2.34838179839703
H           20.15922327015782        6.32446122443920       -2.93854889474057
H           21.44972785175280        8.30683427139112       -2.26755456865053
H           20.35860102352454       10.11107752129838       -1.00570943489395
H           17.98790841095742        9.94268385781947       -0.41724655531113
H            8.28125299972967        6.32301213738054        0.31670393880748
