114
 energy: -21.480519006753 gnorm: 0.000460472057 xtb: 6.6.1 (8d0f1dd)
C            0.31625918349125        0.03688188164216       -0.15241683546753
C            1.82099200646148       -0.17127703820664       -0.21119551464029
C            2.33659352569601       -1.08246781877984        0.90395957333971
C            3.84906150382471       -1.28749654864705        0.85087863831935
C            4.43262986867871       -2.10416509655187        2.02019487953081
C            3.86031657822564       -3.54649632235914        2.09009263435455
C            2.68664992816412       -3.69300343015892        3.04685607194312
C            5.97334154767124       -2.12129011578484        1.94260296875776
C            6.61904956982643       -2.75990999936516        3.11902089701682
C            6.55597512877558       -2.31602941771852        4.39750167227764
C            7.26254537787753       -3.12179565191345        5.32952197352460
C            7.87693397680123       -4.22032678115122        4.78811335769164
C            8.67495701951456       -5.25038899669914        5.44287367567457
C            8.84811835408126       -5.36990150708192        6.85886324347259
C            8.14241386211160       -4.67151945374878        7.88782453895472
C            8.54049837290966       -4.94646378499213        9.16712133155755
C            8.02236512606450       -4.39680383463357       10.37936145216177
C            7.12338561509259       -3.37470983420246       10.48752632480908
C            6.65508718251960       -2.72073581437849        9.34491091952979
N            6.27205170982745       -2.18369833770507        8.38648384890326
C            6.62186696152820       -2.90216261364186       11.77855944021617
C            6.95661581115440       -3.51347585357603       12.99474379316488
C            6.45558000465922       -3.04799376994928       14.18302728820800
C            5.59254723683385       -1.94648805133832       14.21951719159166
N            5.08640915287381       -1.48163957490604       15.41475522562683
C            5.25368580336634       -1.33270252508339       13.00857944809153
C            5.75604925308718       -1.80123703738609       11.82384754736524
S            9.82481560282293       -6.13192544815302        9.12957057678488
C            9.78976204007096       -6.27619227358145        7.39073256648129
C           10.55567505736512       -7.14001787350778        6.60279944007794
C           11.61897889867048       -7.95679918927493        7.16370359702089
C           11.91798003987334       -8.16806205338952        8.48367553684364
C           13.08768014097668       -8.94560065465574        8.70175303164981
C           13.70254489015263       -9.34973649639439        7.56073503811582
C           14.96215180643700      -10.13493935091102        7.47400071244238
C           14.86139020835899      -11.58809369626520        8.00027013559416
C           14.18381652914272      -12.53956155039206        6.99186294249991
C           12.75278216702736      -12.17544999354626        6.63138329780512
C           16.26184919843465      -12.10052790689835        8.39698866483177
C           16.26153184115610      -13.41999919748656        9.16917360248573
C           17.65893377599940      -13.83279845088240        9.63509092932646
C           17.66174575667519      -15.14688617706443       10.39933003982215
S           12.78625632954034       -8.80503946426863        6.19062523504154
C           10.27973161785901       -7.12027092904532        5.20331042773681
C           10.81793147176169       -8.00235644810338        4.21289273943331
C           10.36422144969115       -7.79168188860328        2.94304975228807
C           10.65709812686850       -8.53298424684366        1.75938567087387
C           11.35621898700209       -9.70148975076141        1.66541054756350
C           11.87586561329255      -10.32927790874388        2.79991669686853
N           12.31160993860692      -10.87708446975726        3.72872331779478
C           11.56130584460482      -10.38431370973987        0.38644262528223
C           11.13376991867404       -9.85240551940993       -0.83825493204605
C           11.33053817677171      -10.53079977057422       -2.01324326413482
C           11.96707834651999      -11.77729827613192       -2.02817742159801
N           12.15963512775813      -12.46018063692140       -3.21027709314117
C           12.40135548755466      -12.31124896568237       -0.80989313164954
C           12.20305756352816      -11.62999104023818        0.36147504504844
S            9.28107360518339       -6.40771110766789        2.92610996666518
C            9.37246552666031       -6.18448230572417        4.66677506277668
S            7.58726484223643       -4.20829618984321        3.05215643611789
H           -0.04036534272621        0.68548710187740       -0.95556897358235
H            0.01753844459467        0.49192178915891        0.79362022821833
H           -0.21693397963764       -0.91183589323001       -0.23540419069022
H            2.33808858327582        0.79582674265425       -0.15765710282897
H            2.10718846055348       -0.59191854522708       -1.18421667858529
H            1.82624182201071       -2.05023433383633        0.84239552895904
H            2.05504845355270       -0.66533823616991        1.87822928453286
H            4.34125270777953       -0.30832175789238        0.81831798593264
H            4.12162090806831       -1.77303175379097       -0.09254359045712
H            4.15842110513183       -1.59490388315787        2.95798826742502
H            4.66017899082834       -4.23319434338445        2.39643458718259
H            3.58467246401815       -3.87463349158838        1.08043437094935
H            2.97908849029752       -3.43832541361636        4.06723996328303
H            2.29919712410981       -4.71391480778213        3.06454172762466
H            1.85886939831386       -3.03584406143653        2.78018936127893
H            6.35513487324706       -1.09989677532396        1.83681446236208
H            6.28003572377882       -2.64965488128610        1.03413067875548
H            6.01809774904282       -1.42407579977621        4.68075593844649
H            7.31352095116567       -2.84027177837096        6.36573929869298
H            7.30241116485195       -4.03870335715604        7.68648041247643
H            8.40582656053687       -4.83957125794758       11.27954332407014
H            7.60801321850834       -4.36811609914086       13.00345395693747
H            6.71703089501105       -3.52892489466371       15.10929730788105
H            5.41074426967293       -1.81508526274280       16.31226374777710
H            4.56945589800386       -0.61620364795710       15.49032966815555
H            4.58848406895106       -0.48729944504232       13.02341953536903
H            5.48377551030722       -1.32063443067790       10.90033028198751
H           11.34010517892450       -7.75927911662646        9.29404417523964
H           13.47237176367040       -9.17406547449452        9.68421988042819
H           15.73566510371758       -9.59529456808427        8.03212120697433
H           15.31009496997922      -10.15086124688384        6.43603328291948
H           14.24312857380493      -11.56661304822414        8.91155002778040
H           14.20242017540517      -13.55889162627232        7.39532932911396
H           14.79823487243406      -12.58210793958540        6.08453562509978
H           12.13895982046324      -12.04183627260754        7.52357735753259
H           12.27834717101664      -12.94146887373388        6.01425471768658
H           12.70930570456810      -11.24788823977476        6.06059479673151
H           16.76510488544109      -11.33838221161344        9.00340168381216
H           16.87498795753689      -12.19743570252846        7.49453262986471
H           15.83606697948319      -14.22012262070837        8.55336002447692
H           15.59430232619813      -13.33917976460602       10.03570945229446
H           18.08476809703435      -13.03387391832752       10.25637238693714
H           18.32532387797282      -13.90018438873809        8.76502640866463
H           17.03013622262200      -15.08826796953036       11.28751708928984
H           18.66462657310472      -15.42867692960117       10.72764080755780
H           17.27681920401644      -15.96216622797832        9.78419247752648
H           11.47616238285836       -8.81488840046151        4.45488578535887
H           10.23832990011164       -8.11993260791169        0.86074945058876
H           10.64806177612661       -8.89436332908182       -0.86743505940506
H           10.99465119550583      -10.11235292903515       -2.94583464695778
H           11.98279305870281      -12.04657862732551       -4.11506145579494
H           12.73022486069021      -13.29165873032829       -3.27345058708415
H           12.89157772630945      -13.26889867498872       -0.80837431390415
H           12.54039554059612      -12.05503177473689        1.29065470637236
