54
 energy: -11.210395557039 gnorm: 0.000340528008 xtb: 6.6.1 (8d0f1dd)
C            1.18047213792369        0.23936679077205        0.35678769023120
C            0.37449574132698        1.26865250637591        0.06127050868806
C           -1.07155965502784        1.28585672770253        0.25426343719260
C           -1.83169733721317        2.28221511757269       -0.35255013845770
C           -3.21444977835555        2.34364132967528       -0.20220079814790
C           -3.96507710727380        3.40199175563077       -0.86960264240960
C           -5.22236940649743        3.75916409927530       -0.57285469597792
C           -5.97415312098632        4.81220229529040       -1.24659717882669
C           -7.14930776565987        5.29878533858867       -0.67206070243820
C           -7.88103817138166        6.29037520306745       -1.28831291727899
C           -7.45902426325349        6.81533314360922       -2.49307227621835
C           -6.30273781188340        6.34382206097741       -3.08121145359328
C           -5.56730133149416        5.35307732149004       -2.46741447825357
C           -3.83681176249596        1.37214225739405        0.57726897371998
C           -3.10965220526381        0.36617653646900        1.20892649122685
C           -3.80895122247527       -0.62786145553050        2.01658917370030
C           -3.22826831354675       -1.44035298443027        2.91058331205551
C           -3.92832346752728       -2.43401805358412        3.71742310647045
C           -3.29523115028889       -2.99238687062439        4.82886689767790
C           -3.93310436222550       -3.93131150324552        5.60985096278339
C           -5.21444370192204       -4.33761320125143        5.29662537398086
C           -5.85562113530711       -3.80327329421110        4.19716261205740
C           -5.22170040210320       -2.86261833752612        3.41440307910124
C           -1.72788590565677        0.33801385075136        1.03562107417346
C            2.62631875910245        0.22449420302671        0.16364061473926
C            3.32004076637394       -0.98410121586063        0.24027959166731
C            4.68571438389524       -1.02957152072734        0.06358947154205
C            5.39032212123322        0.12993930202410       -0.18965758456036
C            4.72409502641508        1.33653523031864       -0.26380458872061
C            3.35798429198425        1.38624610592282       -0.08865243598048
H            0.74371377104331       -0.66424469521466        0.74120494979072
H            0.80438252711838        2.15009536242663       -0.37841162956038
H           -1.33790757818541        3.02287156747906       -0.95599588294222
H           -3.44263069497591        3.94284817131715       -1.63757433356444
H           -5.72177153850945        3.26128087211928        0.23843776068857
H           -7.47932597909096        4.89167700306990        0.26852475163972
H           -8.78452869706454        6.65692593018280       -0.82861559097571
H           -8.03253478064513        7.59016676836854       -2.97535044060943
H           -5.97596821086033        6.74932904978267       -4.02506659811952
H           -4.67853887605327        4.98046227312939       -2.94517859002726
H           -4.90482774692958        1.38601364333629        0.69257839715864
H           -4.87549163572333       -0.67705521551258        1.89225059430248
H           -2.17152452122441       -1.34611587816120        3.08324304108016
H           -2.29661047068067       -2.67475749265068        5.07626699162216
H           -3.43106056333746       -4.34849977919021        6.46771434226746
H           -5.71290160172283       -5.07223011249495        5.90800542406646
H           -6.85405212797063       -4.12490637117634        3.94873934240328
H           -5.72435133973120       -2.46713233983797        2.54953032001766
H           -1.15673736714527       -0.43427602486515        1.51366868891548
H            2.77181423572982       -1.89001753778095        0.43563930508320
H            5.20489537581171       -1.97233514741334        0.12328441841566
H            6.45886860531884        0.09373133266601       -0.32682395481709
H            5.27496129976555        2.24292952320496       -0.45641398693712
H            2.85302406464790        2.33495635827034       -0.13119780004024
