118
 energy: -21.941334090774 gnorm: 0.000600210630 xtb: 6.6.1 (8d0f1dd)
C            1.60810336314075       -2.23023969015812        1.94331140652975
C            2.92055333853472       -1.63793788797923        1.45631253429604
C            3.35730985598101       -0.41822410577666        2.26939374448345
C            4.66975412156300        0.18636952173386        1.77495768256428
C            5.08194633554263        1.49211951253868        2.48145242451374
C            5.34064700482917        1.29755915301789        4.00104569996364
C            4.14313296591753        1.64062715647892        4.87402823678177
C            6.30804237774593        2.11819634526586        1.78448947311495
C            6.67160907432504        3.45560244201645        2.32139751363792
C            5.85946252737336        4.53982380805341        2.36285857808907
C            6.44851138345963        5.68655461215470        2.95719508282332
C            7.73147098764221        5.50537204752451        3.40162451775042
C            8.61301421298435        6.44920862842525        4.07722074790261
C            8.20293498523647        7.72122171538461        4.58534470162004
C            6.86784436686860        8.22038963963841        4.70425209794912
C            6.75609480784472        9.48820784924710        5.20129276282687
C            5.55809914727914       10.23552489322344        5.42700042673728
C            4.29616025771765        9.87652246948915        5.05608070570666
C            4.07662103804616        8.69873809582539        4.33663785578413
N            3.90738189057238        7.71602430232243        3.73757507499440
C            3.12229581381037       10.69745455770812        5.36747869714628
C            1.86665599746494       10.32644715104103        4.87600958225656
C            0.74531019398881       11.06174664157136        5.15434471104384
C            0.81292550846380       12.21304323067657        5.94576234971013
O           -0.37513196214854       12.90144436725586        6.18680247063675
C           -0.24002168157175       14.04833336350152        6.99062612484361
C            2.06748806851707       12.58712890541532        6.44054301155179
C            3.18920216975603       11.84891674573145        6.15972648257901
S            8.34867678657006       10.10849882426804        5.56276578931783
C            9.15568568850543        8.63825999966173        5.07755531237522
C           10.52410379400365        8.35768489314872        5.15077493469402
C           11.50132934812022        9.35817747825659        5.54700976006102
C           11.28015350810224       10.61958827778250        6.03311486882461
C           12.46288345996534       11.37510029133401        6.26345449920871
C           13.60864191829720       10.71179542613836        5.96368622034204
C           14.98971588490219       11.25004186780213        6.07943186443348
C           15.46812520169611       11.49604869097300        7.53236669431852
C           15.91403695298079       10.19878672236974        8.23979459273046
C           14.82847468270449        9.14592768755409        8.39016360617027
C           16.59336826086097       12.55201528679370        7.54735979218685
C           16.93821937060860       13.08884701938264        8.93665769230010
C           17.99798978107755       14.19115325142881        8.90033621817437
C           18.33020605669578       14.73432325501228       10.28076231659944
S           13.21905687796813        9.11094318619037        5.41994347896146
C           10.91469480338378        7.04114107735320        4.76482201626488
C           12.22374427850106        6.46926765897794        4.86726242194672
C           12.32461237673569        5.17489611838511        4.44905152752338
C           13.47163269385351        4.32280784999158        4.46074220747418
C           14.68515372465343        4.57587692466573        5.02725057039512
C           14.92982635515904        5.76078034105708        5.72548443936693
N           15.16386243096504        6.73332403269637        6.31850986461338
C           15.78646360489134        3.60849787429803        4.97625364922594
C           16.97264206462711        3.87275175393371        5.66874034666820
C           18.02069359595668        2.99151108387418        5.65362020829331
C           17.94551062085629        1.79027021038720        4.94120959870343
O           19.05409001975677        0.94588319844904        4.98139405424818
C           18.91181894719780       -0.24970203234927        4.25327772586998
C           16.76347833379424        1.52495735556539        4.24049548985185
C           15.71515385068500        2.40980942006140        4.25747260560448
S           10.76603644458918        4.62206036255996        3.85747135050954
C            9.96805547232703        6.13903359736198        4.24014727728666
S            8.22681628235590        3.86783610625400        2.99299110390196
H            1.30705369901329       -3.10015876338169        1.35565030264400
H            0.79997356764972       -1.49900934521272        1.88513406186149
H            1.68046326458064       -2.54705167695442        2.98515952698942
H            2.83803724578594       -1.35745105769666        0.39804309657360
H            3.71319419216404       -2.39700095987879        1.48721370048386
H            3.45031477111680       -0.70215242317617        3.32360629712419
H            2.56804683366364        0.34250490386348        2.24097479680077
H            4.59276472011450        0.37258550775251        0.69732015978121
H            5.47719428433726       -0.54641581094208        1.87935993227910
H            4.24904723230562        2.20586679269435        2.37836479844322
H            6.19250476754078        1.92202695715692        4.30034301351840
H            5.67372570283898        0.26836095499895        4.18193087320491
H            3.85186301656341        2.68491734925066        4.74713397306078
H            4.35456222925788        1.48933731491248        5.93464730180548
H            3.27181427172316        1.03453072341903        4.62609157723472
H            6.12544475388083        2.20317929360900        0.70777858592561
H            7.16355393385989        1.44350133425389        1.89020426040474
H            4.84896030691810        4.52829405521370        1.98374091036104
H            5.90619450902881        6.61315687070710        3.01585728649652
H            6.00524953619804        7.61953556766308        4.49934369785098
H            5.69712753301735       11.17551946894376        5.92749661155176
H            1.78957729023582        9.44135635512236        4.26875403023360
H           -0.21509945444255       10.76568657205936        4.77118220532448
H           -1.22312067616553       14.50500553818354        7.10979005065904
H            0.42610853431613       14.76446052099010        6.50802607842221
H            0.14216905180211       13.77040197224440        7.97359585169932
H            2.15458518144570       13.46513048288790        7.05416014616042
H            4.13209642451001       12.15988574594833        6.57118258993587
H           10.29741026836722       11.02127001672012        6.20837758940570
H           12.45511842036117       12.39157819052283        6.62688158372865
H           15.03649543819812       12.18693042625744        5.51300420655274
H           15.68817561588354       10.57153603929147        5.57905514053484
H           14.61537540972104       11.91016392468049        8.09312579301976
H           16.30737369678886       10.45023841816465        9.23174305139683
H           16.76775130955654        9.77923899462545        7.69420697178293
H           13.93176376935482        9.56105090644973        8.85288924671736
H           15.15774153633619        8.30332733539451        9.00191320645896
H           14.53929049355945        8.73269975210859        7.42410363227047
H           16.30695675823742       13.39372742868736        6.90616933416929
H           17.48759227917280       12.12742402941874        7.07869762274084
H           17.28674990063585       12.27559264456351        9.58265440384544
H           16.02982828996444       13.46872624184473        9.41943638711492
H           17.65364992031492       15.00411831096906        8.24771761243258
H           18.90526404199170       13.80519734817308        8.41723833021792
H           17.44657891185867       15.15788384695572       10.76133792924195
H           19.09002271911288       15.51781232348274       10.24153288045859
H           18.70537766690117       13.94578493067750       10.93539677068481
H           13.05774410545007        6.99435614835648        5.29301044126236
H           13.32332976823901        3.37017916043023        3.98723990613129
H           17.05366848722189        4.79070099010115        6.22436244317199
H           18.92654444365644        3.20525111203293        6.19267376664150
H           19.82857071081246       -0.83068183819117        4.35942689031056
H           18.75575985824241       -0.02567817376496        3.19738085856769
H           18.07783673222374       -0.82981142873817        4.65011651974728
H           16.67469917557887        0.61360800175066        3.67784164966561
H           14.82860192497882        2.17397011163120        3.69772131875137
