110
 energy: -20.738782310065 gnorm: 0.000355092174 xtb: 6.6.1 (8d0f1dd)
C           -0.71996880115854       -0.44121345722944        2.00601557167691
C            0.64673200345893       -1.04454648283653        1.72460603156323
C            1.67609991154180       -0.70680878266565        2.80413085703349
C            3.04700373429252       -1.32734376381551        2.53242005522573
C            4.12808240577413       -0.95388242647138        3.56784565866972
C            3.84979772776777       -1.60925138710994        4.94125838266000
C            4.56983306084744       -0.95883860923071        6.11551424590295
C            5.52860952515542       -1.30583580340159        3.01586178875426
C            6.65052865852866       -0.84471589475419        3.87019059308535
C            6.89683118474971        0.44338710830148        4.21883642039627
C            7.96883550379722        0.59125837588606        5.13341540811395
C            8.56437270379783       -0.58824940059863        5.48982262871892
C            9.64009740306572       -0.73538298394688        6.46287569740911
C            9.69377166753827        0.05523973153344        7.64409763879415
C            8.66619222904981        0.92828716623213        8.11468738950048
C            8.94585988717798        1.56624757352972        9.28884119454841
C            8.10975459958975        2.48307187129640       10.00241382258938
C            6.84148102535122        2.85172995484040        9.67278305636998
C            6.20050940114259        2.30980078959823        8.55477192587361
N            5.66872324808386        1.85167943364717        7.62685197595627
C            6.07160414022150        3.81350628128401       10.47966771361238
C            4.71855599685428        4.01989015075363       10.20325362882948
C            3.96624931858330        4.90959299615379       10.93566331803907
C            4.54760899024068        5.62165001282594       11.96425746846259
C            5.88479410831704        5.44062207417260       12.25300890664106
C            6.63978964557491        4.55014505619335       11.52158323251181
S           10.53906595178976        1.08548953242910        9.84011683204073
C           10.80023356369162       -0.01606855284101        8.51050612844628
C           11.89221007752932       -0.86103303371380        8.27601441475288
C           13.06884548676922       -0.83796888777301        9.12562121600995
C           13.24412043221434       -0.16441171301155       10.30553606705224
C           14.53899233486275       -0.30531820705402       10.87215022304902
C           15.37884049511265       -1.08452287708701       10.14264788124600
C           16.79588255928969       -1.39026523588596       10.47508076374438
C           16.98679003460136       -2.33905231533924       11.68666330760273
C           16.81191602273901       -3.82565105268794       11.31090243850427
C           15.43992075959427       -4.19128946447040       10.76970101878393
C           18.36071760130536       -2.08835226918111       12.34258086224494
C           18.56143011422875       -2.79222989901723       13.68500710871747
C           19.89104282728989       -2.43251740376462       14.35015629069004
C           20.09686456918758       -3.14386397476585       15.67780080018278
S           14.54051331060014       -1.68291653068338        8.74610238417410
C           11.79913554903166       -1.71660452380632        7.13498934726973
C           12.74197626284836       -2.70633800475449        6.70629015533717
C           12.38710900653187       -3.38879421106440        5.57880845078976
C           13.09847268254081       -4.43409292542988        4.90936379329237
C           14.21762974132387       -5.07904593447273        5.33620623920159
C           14.80122898678374       -4.79700912754900        6.57341839223142
N           15.30045459454142       -4.59435597107217        7.60392511380611
C           14.83713083928289       -6.15428541700130        4.54232747226210
C           15.77869962886041       -6.99831976428559        5.13416818499205
C           16.36776535606767       -8.02009603685725        4.42499491646570
C           16.03572411871733       -8.22212955080442        3.10122348319315
C           15.11629698209920       -7.39377052414651        2.49051010783080
C           14.52430593686595       -6.37103351935314        3.19846027292337
S           10.83538025928162       -2.82043015862223        5.00179042468182
C           10.68421642433105       -1.64297420563749        6.27715919039725
S            7.82985276458622       -1.89774036621630        4.59579204875108
H           -1.44635169039016       -0.68891546971742        1.22890281047160
H           -0.66538050656878        0.64700319156858        2.06979047023890
H           -1.12100709173928       -0.79888949469007        2.95605250115422
H            1.01777842788594       -0.70270370954085        0.74939615258033
H            0.56586464685713       -2.13551349733375        1.63034863068664
H            1.29658097613202       -1.03349984662558        3.77843190128504
H            1.77580361427372        0.38207003803246        2.88874154417569
H            3.38188088047801       -1.02056480380925        1.53460115645710
H            2.96146910014838       -2.41817376434431        2.48229799534036
H            4.08878023776691        0.13767248009895        3.70866079389270
H            4.10481482824985       -2.67394209977729        4.87987398976273
H            2.77114713790188       -1.59116038195125        5.13511294254630
H            5.65060356312705       -1.07871301514019        6.04587271773560
H            4.26569912811841       -1.38954449658193        7.07178274571290
H            4.36998707192863        0.11307825023154        6.16507020995920
H            5.65122928505773       -0.88069880463217        2.01352361788864
H            5.59910306017935       -2.39077338453723        2.88776426502808
H            6.29522162697431        1.27056021523234        3.87446844952080
H            8.28236445419222        1.54855368733927        5.52017858479450
H            7.72827075935329        1.02580675867394        7.59950651855640
H            8.54641706498906        2.89400510538056       10.89342299059889
H            4.26388971481687        3.46841722932709        9.39877527210201
H            2.92302056654258        5.05096619731791       10.70470272508865
H            3.96007945654501        6.31927744515385       12.53850971176347
H            6.34068000064446        6.00079392503979       13.05314865107553
H            7.68345428304788        4.43770872598309       11.75256085847846
H           12.47610821080166        0.43347020211817       10.76437210129984
H           14.83885059351555        0.17463995887260       11.79149942654946
H           17.31025094150021       -0.44171028696131       10.66670105329733
H           17.29246079756881       -1.81799656149968        9.59804838785371
H           16.21259176733737       -2.08547682471839       12.42809280251720
H           17.02422686949605       -4.44398610058814       12.19099928829380
H           17.58532216522077       -4.09485932961477       10.58151646604070
H           14.64529000884073       -3.85669636053302       11.43848413064004
H           15.32712611990888       -5.26906250744307       10.63389298962815
H           15.26324714846824       -3.73641521524131        9.79526374558904
H           18.49985009573560       -1.01039345634945       12.48573221825148
H           19.14923482451812       -2.38792031631437       11.64384693837270
H           18.50741121256678       -3.87882713730887       13.55539212804530
H           17.73350182880131       -2.54229214435054       14.35933502771518
H           19.94340247688350       -1.34497974823069       14.49192334515837
H           20.71468740852208       -2.66854732635126       13.66346532354618
H           19.30487256119067       -2.89452121463105       16.38621462775810
H           21.04893793957734       -2.87845293632463       16.14262438669426
H           20.08485029103978       -4.22785802789413       15.55069507596947
H           13.64512439001061       -2.92572874708401        7.24331056676190
H           12.65577304480195       -4.75466000177154        3.98396799996235
H           16.04149963379814       -6.83876507019921        6.16544373897268
H           17.08893894677510       -8.66217843304162        4.90380244598770
H           16.49603058228216       -9.02212945040340        2.54468743298387
H           14.86261044923981       -7.54645858935122        1.45409459570681
H           13.82895454113824       -5.72107231385611        2.69855560795453
