112
 energy: -14.488818505156 gnorm: 0.023178159805 xtb: 6.6.1 (8d0f1dd)
C            0.84897421073697        1.01985198617376       -0.14670726076148
C            2.32292001465331        0.68734672881135       -0.31191911942597
C            2.80792752387528       -0.35842539239042        0.69242431234713
C            4.27706203295539       -0.72535863096488        0.50231485930083
C            4.84939490703371       -1.67988294770987        1.56626661630011
C            4.09327679646866       -3.03169679217148        1.63851184450624
C            2.96799050297447       -3.05855315150522        2.66159847565346
C            6.34613278212387       -1.89766207979185        1.32012122577158
N            6.96423062915846       -2.73965952291915        2.35659611326312
C            7.27203631577300       -2.32087468287722        3.65609720201237
C            7.11599672939680       -1.01170511426770        4.11926142808864
C            7.42618828172681       -0.59678408622337        5.35448645479298
C            7.27170437599148        0.68303912695295        5.85707463776805
N            6.59823613702227        1.65521690826200        5.40795328253800
C           10.54675183063440       -1.85742129850071        8.23760526494080
C            9.31482425987390       -2.10928606069728        8.50037230679958
C            8.68795377529402       -1.96031597229907        9.66356447667208
C            9.26427449448539       -1.70319692923563       10.83800829737446
C           10.56045848221370       -1.66930053756077       11.11371388948138
N           11.19480095979970       -1.42528265806659       12.22074858176853
C           10.76549649775437       -1.11506972915864       13.41290339756545
C            9.54171615681630       -0.95351348127786       13.90838161330598
C            9.24628854669653       -0.64182177727878       15.11910565452140
C           10.15319539863752        2.77308640012248       13.98651846102121
C           11.21812482206997        2.67892634267690       14.70432394658181
C           12.24627679218547        1.95324376370078       14.46649460000496
C           14.25100060898121       -1.38061591468148       10.67844323091732
C           14.45948825966903       -1.31113575626880        9.41027651526720
C           15.06130552640141       -2.18014601001727        8.68668552109064
C           14.20335961848238       -5.58592000861209       11.70473932346701
C           14.44976505138540       -5.06128785978514       12.83005668672815
C           12.92079516443133       -2.44272828812369       16.07424153099787
C           10.98835691487123       -4.83402375537985       10.12145152673561
C           12.08804641823692       -4.79420992905769        9.78653916267519
C            8.16149959327653       -3.47796726311584        5.65756769359116
C            7.75647365677361       -3.45561409057005        4.36350315573091
C            7.72458769655201       -4.58596341391788        3.45633682052474
C            8.08066667373342       -5.90836790793071        3.75692483997054
C            7.99586223303081       -6.91186122902613        2.87847413351104
C            8.27127328642252       -8.23426978707341        3.00307836722286
C            8.49517383553921       -9.38195497002173        3.09053415380044
C            5.02852557389998      -11.57689120161666        2.43172200862019
C            5.12845607903119      -12.30431245113410        3.55068889442712
N            5.71368222815793      -13.45293200011672        3.74764728967967
C            6.42470208246475      -14.15322136227902        2.92541251573752
C            6.86142139744012      -13.88355414189940        1.69951032564099
C            7.51533579122484      -14.71589683310137        0.89051329783548
C            7.39513256080487      -16.04698566947334        0.87260025529200
C            6.26823512741229      -16.73644763207407        0.91029774303695
C            5.07742339805909      -16.26923517070318        0.90487494018563
C            2.08427550822073      -12.44957588263701        5.05647283117288
C            2.53335862418436      -11.70657735410652        6.00130659476920
C            1.84830689867641      -11.00762078560184        6.82834233036289
C            3.71185390676693      -14.00222065942319        8.44482474186852
C            4.15995991925829      -14.93474199560901        7.67722861210586
C            4.95821542537979      -14.79716479937508        6.68505349160434
C            5.78057938719104       -9.54627275166039        5.75740808967538
C            5.12996597346227       -8.81718335491095        4.98187309499637
C            8.00595055344935       -8.19544969299090       -1.12132533221962
C            3.67021425537854       -6.12149477004093        0.35486855968893
N            4.48804110866536       -6.85293722842569       -0.17078085826136
C            7.05315489782642       -4.83989604550608        1.06341450142369
C            7.23936499156396       -4.10819002187524        2.21020629266192
H            0.51459845560703        1.77049163401559       -0.86594562112143
H            0.64115873728370        1.40620180125401        0.85260841198434
H            0.22695104590645        0.13365297778430       -0.28437843190972
H            2.93033752142886        1.59632252518170       -0.21114257828815
H            2.51727904295916        0.32803325868136       -1.33104920373069
H            2.18614406463527       -1.25609051796939        0.60198534609671
H            2.64762843321559        0.00885302016290        1.71297430687869
H            4.87791971751793        0.19147963669589        0.48562218855941
H            4.41662586283186       -1.17388951772483       -0.48757010719751
H            4.74530686517055       -1.19927509557794        2.55119229101453
H            4.80720367164526       -3.82540966207834        1.88716077125198
H            3.72282894800675       -3.29184905608802        0.64006360266465
H            3.34823144558278       -2.86575332951822        3.66605654642041
H            2.46303483167859       -4.02654576377857        2.68567986718058
H            2.21004806554430       -2.30318953408046        2.45817244905180
H            6.88377297161927       -0.94705202178654        1.27562091917307
H            6.49290186444680       -2.36612743177886        0.34618183699542
H            6.73049249624043       -0.28339532469157        3.42893919500482
H            7.04484734077888       -2.28141827587856        9.69711623342577
H            8.96225454393061        1.12854602722131       11.82913996159933
H            6.66524758873907       -2.51572224442230       14.53591210156719
H            6.74350563251428        1.47319136901624       15.09699465015262
H            9.57250335195005        4.06397353575400       16.76664027358087
H           14.28932611834696        4.20922238279995       14.88692612548268
H           14.31191605696060        1.02294734469051       12.44085034094476
H           13.04396795042832       -3.39755591616926        9.56882200429303
H           16.92671720188921       -4.14428072319795        9.86954436025985
H           17.32870918851668       -5.86426388159065       12.94797554242873
H           13.97038968860486       -5.20222455202123       15.21610245527536
H           10.30901879063256       -3.51274976928857       15.28838050216736
H           13.40702095068899       -5.26522635166509       11.09444250979947
H           12.30463208763739       -5.46230275477566        8.09981770115074
H            8.51682579965992       -4.33671284738020        6.14342281572603
H            8.42935391088571       -6.13259582111304        4.74861710559506
H            9.92990283759916      -10.05012558316572        3.94746419081402
H            8.70327570956095       -9.92051109096074        1.23916580678545
H            7.17557223146095      -10.55276430304334        3.21430726479459
H            9.26679227792359      -14.21760609885691        1.04192291720500
H            7.16953052911428      -14.15429096361835       -0.78262225273305
H            3.73488476642676      -15.43666038800098       -1.74154761275895
H            3.43923114667729      -14.03290372827919        1.59064501523753
H            2.91715708122775       -9.88338710832211        3.47154006253397
H           -0.90542589197563      -10.88938151507310        7.30495928605217
H            0.89393026937843      -13.83223024999072        8.38555034430481
H            5.41335679788273      -17.30767318786145        8.89416268254723
H            8.24141885129328      -15.76398819853524        3.35955135324762
H            5.26411067887518      -11.71968228353485        6.67620600353831
H            5.86174312923485       -5.86875687206279        5.70134475033347
H            6.70920586586621       -4.44377599897748        0.15879026888640
