120
 energy: -20.471923744259 gnorm: 0.004744373297 xtb: 6.6.1 (8d0f1dd)
C            1.43621613375843        2.70111425415968        1.49713311034440
C            2.54469281738736        1.91826102141279        0.81192261094339
C            2.92512510945815        0.64552399747381        1.56981948166410
C            4.04445342680991       -0.13992322134761        0.88955996475591
C            4.55033190655922       -1.35595957465247        1.68769211355139
C            3.45733752185081       -2.43433827883943        1.90989038371371
C            2.73666888956408       -2.30940751417228        3.24372806544594
C            5.78698190137075       -1.96412687177185        1.01741535985963
N            6.36262708736276       -3.05135275909924        1.81646834457530
C            6.98403543866782       -2.88669134589981        3.05991376096629
C            7.31163763239491       -1.73641486961996        3.77743962057877
C            7.90785861099688       -1.86067310413312        5.01668123949158
C            8.23043372375090       -0.71080192407793        5.75375878232056
N            8.48934298874580        0.24615149073783        6.35979699374183
C            8.18434121487544       -3.14113934346022        5.53722232842371
C            7.87289464740432       -4.28166904810658        4.84248343102351
C            7.26523333680584       -4.15971214319865        3.59020872046950
C            6.79927279494563       -5.13216903788147        2.63442457327991
C            6.80268558428439       -6.52909381352332        2.63345210019000
C            6.25522750999707       -7.18859679354181        1.56284879333225
C            5.69285999750805       -6.49225904606967        0.47200048243135
C            5.13825962110549       -7.19939969745789       -0.61147516198509
C            4.66322350502529       -7.81158399085418       -1.55737187809774
C            4.13389368239185       -8.53457466548091       -2.63807351545073
C            3.57729064556597       -7.85588285412202       -3.71931339267671
C            3.05690032021653       -8.52697564039409       -4.80036876495804
C            3.07362921143517       -9.92365062612981       -4.85374649489477
C            2.54734016827651      -10.64561683500193       -5.96328702053072
C            2.59089512200058      -11.99664519845248       -6.00095955629403
C            3.16219547672641      -12.76277451178395       -4.93912807499725
C            3.21478442966066      -14.12420875055937       -5.05627148512208
C            3.74717614349155      -15.09219735121069       -4.26338366512535
C            4.27897978151050      -15.89331647581207       -3.50824887785123
C            4.90838510240620      -16.72306957606126       -2.62729591266913
C            5.29537381485686      -16.47492434588646       -1.37918031956022
C            5.93735255405250      -17.28522653769860       -0.57380701130020
C            6.36545829477453      -18.51346231921968       -0.85228919422018
C            6.96546350666209      -19.38920006163699       -0.00695088684719
C            7.26388472792257      -19.20223538870911        1.27602369383614
C            7.73031013934241      -20.10434666681826        2.10313368645040
C            7.98939387969321      -21.37527862867727        1.81259614943737
C            8.36587568298517      -22.38578462795320        2.63729938046865
C            8.66452139468201      -23.26372377201389        3.35555569090873
C            6.76732838390523      -27.98170008640389        4.99690059459603
N            7.50489033104733      -27.07403459829229        4.53486403781589
C            7.20383129423635      -26.05154432712859        3.87714005822938
C            5.89711829139913      -25.72175873782981        3.51253495368150
N            5.90471671624897      -24.78126629332586        2.42514965811632
C            6.67924405561243      -25.17672256084062        1.27345254240533
C            6.79540648460685      -24.20803276824216        0.18528528466985
C            7.29726356657207      -13.47156339650166       -4.07350229694478
C            7.63381417434304      -13.49971888873890       -2.77699248043572
C            3.86744216323851      -21.72856256509459        0.01002847731242
C            4.34509507569204      -21.31905134348619       -1.23386708650758
C            5.70193903592750      -21.45314803118909       -4.57612399227141
C            4.67847425433711      -20.80957851210275       -5.00036527915488
C            4.24561858654016      -22.37615393293006        4.41741624289775
C            4.77329212601582      -21.67893482637221        3.49870708360580
C            4.22186198546566      -12.72026797667432       -2.72429772417623
C            4.73008860667065      -12.05661364513912       -1.62684300231371
C            4.71145211536306      -10.70533353294331       -1.57674055880299
C            4.16169272627283       -9.94600779265885       -2.65366754737133
C            3.63368487164180      -10.64350029522014       -3.77211908276902
C            3.67594614728370      -12.07235155775343       -3.80469495501792
C            5.69072809257847       -5.10964345484992        0.47133820799567
C            6.24471547636094       -4.42288213315393        1.55192865852241
H            1.17323042079443        3.60744597106089        0.94737985491052
H            1.73048093355087        3.00215214977719        2.50412386424348
H            0.52989021471736        2.10064911675539        1.59307219847756
H            3.43503986441337        2.54981568849801        0.69392955813138
H            2.24592242182326        1.65530616458061       -0.21137078626991
H            2.03753405278521        0.01225564382715        1.67866061476960
H            3.22621674129727        0.90445821232275        2.59200499593149
H            4.88682521358659        0.53441592359130        0.69515686291872
H            3.71387752590219       -0.47436871548538       -0.09983837924732
H            4.86177083689988       -1.00069618116667        2.68262443592192
H            3.92123943731714       -3.42676854568939        1.84892775086102
H            2.74600200768720       -2.40726564344681        1.07538403522744
H            3.43624440621464       -2.40298079577054        4.07648984950393
H            1.97516508629268       -3.08198142105048        3.37008225903754
H            2.24156232186428       -1.34441298679179        3.35132526173181
H            6.55960548154831       -1.20646457253638        0.86275486120390
H            5.52669060969696       -2.34685114870783        0.02872940905298
H            7.10808935359641       -0.76359334726270        3.37013043680771
H            8.65065456775906       -3.20920529025964        6.50513659007482
H            8.08295642662640       -5.25720686934543        5.24382338057731
H            7.22773138672019       -7.06435989275923        3.46399279897319
H            6.24737948134299       -8.26487699401892        1.54173451594581
H            3.56177670361246       -6.77948219515177       -3.69709009345150
H            2.63216566715432       -7.97853095206438       -5.62330871455774
H            2.11524461403214      -10.09323704006458       -6.77967033999449
H            2.19551840877648      -12.52555410850755       -6.85123399872258
H            0.47316186929872      -12.68022633629518       -3.86452503739938
H            3.70434009629654      -17.65027451222900       -6.04449909663706
H            6.75139751683976      -10.47488362530460       -3.67240656209701
H           12.99983986422924      -13.71132676233159        4.90591920683608
H           10.34782411805422      -23.94007769109703        2.98020571275607
H            9.08860209888088      -22.69553833933925        5.07342551683135
H            5.35064882585119      -26.62534143649010        3.29171833937972
H            4.96473029982900      -24.44120720476883        2.17942953736111
H            7.63755365489777      -25.57800918436806        1.56867193712544
H            4.55702704195856      -19.06208831454093        1.74634876754848
H            5.84322058782835      -23.82452433225662       -0.12240862556676
H            7.30707456142925      -24.60433278413235       -0.66966847448332
H            5.62793185021859      -11.54502887336235       -5.94610476459880
H            6.41037505511873      -14.00734148455488       -4.27327488343830
H            8.05985708686139      -24.70393436402611        3.82594903040371
H            2.56681880345736      -23.22914048329648        2.07806215474922
H            3.24219090820991      -24.71357040900332        0.14075138587609
H            8.18803479578282      -16.36857404501532       -2.24588991771782
H            2.85653662757204      -14.66328261433579       -1.18902135515580
H            4.00059012463092      -21.98964041505699       -2.02481100701999
H            5.43869435269253      -21.31585433890691       -1.25028620037524
H            4.00312130612541      -20.30999705586010       -1.47871994255451
H            4.22654859466778      -20.98187045592999       -5.93160395102944
H            6.56658348690564      -18.72579262221388       -3.76485500407259
H            5.79707308437329      -21.71874603405018        3.26331912190351
H            5.14442256170541      -12.63323810474883       -0.81728516249643
H            5.11070087646148      -10.18541219290801       -0.72354396393474
H            5.26630553855758       -4.57140938048748       -0.35545684463091
