73
 energy: -15.056292737131 gnorm: 0.000426087518 xtb: 6.6.1 (8d0f1dd)
C            1.00735154476695       -0.45425653398507        0.66926162227052
C            2.40193259561068       -0.05964695937798        0.21051958061966
C            2.90923192267510       -0.91900561283593       -0.94811979684800
C            4.30742729837109       -0.51513142647250       -1.41903791088303
C            4.84825755962194       -1.35327475258706       -2.60554291796714
C            4.50888405220436       -0.74421711011994       -3.97936214629589
C            3.02438370620948       -0.61507929536999       -4.27443461367628
C            6.36241075250745       -1.55629671986629       -2.48057653860303
N            6.89750565739436       -2.40333717328328       -3.55104856986700
C            7.50458859460505       -1.94958253974860       -4.72925103346931
C            7.82817414321253       -0.66417042923272       -5.16439691232688
C            8.41322262167254       -0.49790372004364       -6.40426838472691
C            8.73325681374457        0.79145924457749       -6.85682216990767
N            8.99329727110704        1.86142584372996       -7.22770925464211
C            8.68061797007796       -1.62221899813663       -7.21100760603541
C            8.36923941683943       -2.89235647939299       -6.79862944032553
C            7.77289820897803       -3.06367964289446       -5.54701473055409
C            7.31100162672380       -4.23262681806041       -4.84197714952481
C            7.31176054933763       -5.59093700517353       -5.16673467618397
C            6.78098412645860       -6.48223474725449       -4.26956365317691
C            6.23677584706658       -6.06080723405785       -3.03768929820918
C            5.71115694628420       -7.01013700228043       -2.14019576297299
C            5.27853887999635       -7.85679057341726       -1.37158921736129
C            4.81245651544836       -8.86526576109212       -0.51158367894042
C            4.02510338107597       -8.53075627187208        0.58770844820549
C            3.55149212849540       -9.48777579779976        1.45474984852864
C            3.84717280558724      -10.83899075112418        1.26043403125491
C            3.37166315627260      -11.85796257691522        2.14242775407138
C            3.67081864775398      -13.16017705112371        1.93601494959565
C            4.47501079329428      -13.56819608059454        0.82649763333685
C            4.79931551029743      -14.90550896423926        0.59152114982643
C            5.57819935026106      -15.26352511719540       -0.48923674220343
C            6.05436506989998      -14.30792438901874       -1.36259035333908
C            5.75921485556673      -12.95678556046332       -1.17276934365594
C            6.23491484446314      -11.93846126640665       -2.05565683372674
C            5.93538582384183      -10.63690228983367       -1.84822271401203
C            5.13205301179665      -10.22095529454991       -0.74085746365770
C            4.64521572546652      -11.20804502591951        0.15166427254720
C            4.96049650156998      -12.58117507876251       -0.06571751806596
C            6.23227149722662       -4.71559320777636       -2.71708696305153
C            6.77058642960777       -3.79634262812811       -3.61758752018806
H            0.65664998073398        0.16570094374692        1.49726861104405
H            0.98059000782183       -1.49317428020732        1.00283836812672
H            0.28334998953278       -0.35850433240820       -0.14196871570076
H            3.10890439854047       -0.12582921041708        1.04804370468688
H            2.41595481118288        0.99661437816691       -0.08919885843363
H            2.19630261172543       -0.86784078300022       -1.77709610171439
H            2.91362467334622       -1.97407339769215       -0.64814589627696
H            4.99750488625765       -0.60281471233934       -0.57112395211173
H            4.32649109725702        0.54714992608329       -1.68638018551843
H            4.37927778840671       -2.34892190565462       -2.55743125923290
H            4.98343607625914       -1.35680565882711       -4.75663211297456
H            4.99420599828168        0.23612294881244       -4.05702830656537
H            2.51059981337974       -1.56909703317113       -4.14431543526944
H            2.84176239116765       -0.28282965380231       -5.29887982095849
H            2.54651479162835        0.11218588295378       -3.61680274903584
H            6.61736143628453       -2.01314105904367       -1.52077717604079
H            6.87266080245164       -0.59131171415586       -2.50711877377455
H            7.62458195325204        0.18936714996973       -4.54515814160636
H            9.13843278032387       -1.46406485311691       -8.17242297042178
H            8.57075014540596       -3.74826913444284       -7.41808341044194
H            7.72420013742275       -5.91759046525284       -6.10490018474002
H            6.77404321278470       -7.53420289897922       -4.49819461132717
H            3.78834334640169       -7.49337364671656        0.75257150410634
H            2.94525274969713       -9.20211062350932        2.29697029982378
H            2.76503564683865      -11.56765324256825        2.98269819985431
H            3.30458178112095      -13.91469196767298        2.61042744816790
H            4.43286243974891      -15.65870361621163        1.26747250187909
H            5.81766207737303      -16.30151352121467       -0.65290791829641
H            6.66152060980761      -14.59730885298284       -2.20290451691209
H            6.84152584323000      -12.22876284273110       -2.89589010697325
H            6.30330850326922       -9.88470007936947       -2.52373659085547
H            5.82542306564499       -4.38201294615067       -1.78062121833776
