48
 energy: -9.344019722814 gnorm: 0.000884436694 xtb: 6.6.1 (8d0f1dd)
C            0.82559378521353        0.09451190573717       -0.10929289043972
C            2.32985301725285        0.06188017879669        0.10806360556040
C            2.95063135559488       -1.28901996436892       -0.24962994093794
C            4.46213174528812       -1.33040541271444       -0.01851333576380
C            5.12253977551377       -2.68246798555930       -0.39573570597475
C            5.67310431873056       -2.70302890192412       -1.83389050031165
C            4.62592386601802       -2.51006062870618       -2.91675704211983
C            6.22971440006077       -3.04918618194807        0.59808126196027
N            6.80639147291073       -4.36692157635636        0.31372800910041
C            8.00499098737952       -4.61374752781148       -0.36803771809059
C            8.98119462457858       -3.74704320339927       -0.85886294769116
C           10.07258575354531       -4.26784317265209       -1.52512151356632
C           11.05516124246023       -3.40804560388463       -2.03854300513001
N           11.86268204910196       -2.69325360739420       -2.47067198895561
C           10.19223704328843       -5.66161381739912       -1.69654782278430
C            9.24077644625345       -6.52696512799814       -1.22267321375048
C            8.13130668995082       -6.00361531547023       -0.55327603200075
C            6.96604504405595       -6.62034397649587        0.02658501095431
C            6.54441100469054       -7.94983850545766        0.11521208185544
C            5.34175275440828       -8.22049905795564        0.71485166389497
C            4.52972811959241       -7.19435508492613        1.23869915607496
C            3.29746062932704       -7.49976067365813        1.83592929322123
N            2.27309114028766       -7.74691872520271        2.32498557846645
C            4.94410371495815       -5.87997097717547        1.15631960226531
C            6.16402036407477       -5.58805459063217        0.54775049560874
H            0.39523963323620        1.06532738469582        0.14493565273522
H            0.32218904917893       -0.65709578087769        0.50102106315846
H            0.57286548581877       -0.11450234259505       -1.15007091557306
H            2.56568468094940        0.30451694388036        1.15241708824740
H            2.81440039008227        0.85066045422956       -0.48204134133338
H            2.71738785198061       -1.53288901258323       -1.29101679499428
H            2.46901368604001       -2.07996218766896        0.33783166788470
H            4.65906326039425       -1.11306246320542        1.03805272904423
H            4.95294887528174       -0.51902793211215       -0.56687572303176
H            4.35019455587964       -3.46462665891126       -0.32626281365813
H            6.19336207649068       -3.65600499650630       -1.99345817776903
H            6.45300640845971       -1.93745290056616       -1.92185715294882
H            3.81758528117700       -3.23615493974300       -2.81833587387754
H            5.04935121449218       -2.62827416170226       -3.91632917516288
H            4.18287535225627       -1.51462274727633       -2.87339946782667
H            5.84968676937714       -3.05431763070344        1.62291133403475
H            7.02438342340721       -2.30132003561757        0.56675344211278
H            8.88653244530516       -2.68568141830152       -0.72519668997973
H           11.05468944801200       -6.04028271472228       -2.21785475751164
H            9.33202850360533       -7.58974184044052       -1.36005653065448
H            7.15882456879974       -8.73561715898663       -0.28700214017781
H            4.99432094517907       -9.23651386493820        0.79203905139108
H            4.33247475005768       -5.09297646078650        1.55655342445424
