52
 energy: -10.955657809100 gnorm: 0.000391137186 xtb: 6.6.1 (8d0f1dd)
C            1.16717526425498        0.06103431544296        0.22824991126036
C            0.33020170464419        0.93141790609112       -0.35761274261359
C           -1.11661013321168        0.92533559808795       -0.24913654782088
C           -1.78304154272968        0.02762518848559        0.55934768197262
C           -3.16067200297876        0.07213185850456        0.62196880428206
C           -3.91893783197335       -0.84744879871887        1.44956176181714
C           -3.40215382750750       -1.72803393187234        2.32073285142915
C           -4.17570206179455       -2.65586214254230        3.13311246175155
C           -3.53208374774511       -3.41087256573855        4.11503793848457
C           -4.23300054695909       -4.30386204824690        4.89490069224522
C           -5.59118962062881       -4.46582614663835        4.71153481953076
C           -6.24659599025902       -3.73088312905414        3.74454474986418
C           -5.54970979152168       -2.83551966478100        2.96290112279471
N           -3.84300727704722        0.96629793471403       -0.09455200778816
C           -3.12179656716883        1.79941235048004       -0.84538648015187
C           -3.85081897528604        2.77804372640479       -1.62377481838209
C           -5.18742787402284        2.86379632865246       -1.60317370643242
C           -5.99287925088033        3.81316667695047       -2.35412751349109
C           -7.37831424092332        3.82134026050104       -2.18756537311015
C           -8.16950338743837        4.70760145455138       -2.88435298657025
C           -7.59648622069098        5.60427324584224       -3.76317672888027
C           -6.22806943228463        5.61158269150162       -3.94301163810306
C           -5.43262610650433        4.72743261021753       -3.24761392629100
N           -1.79311823740409        1.82822480372922       -0.95996825317090
C            2.61848743612514        0.09012520468998        0.11700717296881
C            3.36927425708038       -0.96423985276459        0.63962582214580
C            4.74410612894393       -0.96470851565199        0.55655888207153
C            5.40153515324243        0.08761134897583       -0.04764231672387
C            4.67837035266771        1.14136164586274       -0.56861604066784
C            3.30287720192746        1.14560712631619       -0.48865495683663
H            0.75511401136762       -0.73324236526681        0.82265427875963
H            0.73687206851124        1.70651758035377       -0.97940556150757
H           -1.23793862250436       -0.70006823883844        1.12707433828529
H           -4.98551419231642       -0.78320652323608        1.34416624719038
H           -2.33654189589137       -1.75921789314808        2.45373180839783
H           -2.47257665450355       -3.28585033774742        4.26026054031624
H           -3.71973898947840       -4.87774598668882        5.64916458625767
H           -6.13884501610051       -5.16615912494744        5.32079252317927
H           -7.30689047876291       -3.85954684480413        3.59930163632687
H           -6.07210583150483       -2.27821007949146        2.20627604678616
H           -3.26999455624728        3.44766111887503       -2.22890350538749
H           -5.71499209019742        2.17062531762255       -0.97282046614723
H           -7.82715872046485        3.12301451109861       -1.50198639842560
H           -9.23803494483632        4.70110816898647       -2.74310660391504
H           -8.21634945046204        6.29727366063916       -4.30833732523606
H           -5.78057426758709        6.31149322193953       -4.62982193673564
H           -4.36816889890669        4.74243449939009       -3.39855698082907
H            2.85861041086841       -1.78689495065236        1.11056881574406
H            5.30769056094354       -1.78789452086666        0.96458461559655
H            6.47747462705984        0.08729544869955       -0.11102251932977
H            5.19195889968974        1.96476035608301       -1.03783671000827
H            2.75404119939891        1.97903750201027       -0.88892606490156
