111
 energy: -21.119045275880 gnorm: 0.000533099805 xtb: 6.6.1 (8d0f1dd)
C            1.55443412043490       -1.37015415671493        4.65093959739464
C            2.40853272597934       -1.07967095360557        3.42749181322443
C            3.25058009252727       -2.28131580470116        2.99631617373180
C            4.10064066730370       -1.99981407196546        1.75930561536078
C            5.07218676846435       -3.13099793037092        1.37147579411959
C            4.35314965916335       -4.45969808227424        1.02258833293434
C            4.21801011854610       -5.41302505886452        2.20061195623123
C            5.97632912145916       -2.68416402272905        0.21766990743458
N            6.97062338718290       -3.70422401016738       -0.13447207992369
C            6.95024281798056       -4.51112840421784       -1.28267310154749
C            6.07616073816822       -4.55553931041297       -2.37184908155633
C            6.30093002546285       -5.48033254742641       -3.36021675227701
C            7.38046429240173       -6.36700390149201       -3.28956124213788
C            8.24864284181970       -6.34024239934191       -2.22665359781148
C            8.03402456000642       -5.40547587648751       -1.21222066776766
C            8.73144755018381       -5.13577671630873        0.02106300080619
C            9.85300306568034       -5.71674173018526        0.60543162983153
C           10.29830729476060       -5.26260507119533        1.83677060224117
C           11.47103866529788       -5.87565651787488        2.48189420306115
C           11.55148287850751       -5.97609693146056        3.87310201401664
C           12.65643689698143       -6.53224515854935        4.45675797993442
C           13.71722742413656       -7.00321131677280        3.70132058378981
C           13.64717844815199       -6.92220099096506        2.31464141890087
C           12.53656034779482       -6.37206573150322        1.70651641911285
F           12.48278866660208       -6.31608151224975        0.35349672218503
C           14.81663951180579       -7.54432030931253        4.50552964158904
C           16.02090737932237       -8.06447330328986        4.04331980045726
C           16.96586299642525       -8.52485993304078        4.93779467196900
F           18.13416350285773       -9.02921885747182        4.47092490549299
C           16.71775203081805       -8.48077878796171        6.32279922905780
C           17.73160788981886       -8.96841750962896        7.27218887391036
C           17.34673290548107       -9.64174617650726        8.45508539585397
C           18.26738007342044      -10.11832816405634        9.34884602249241
C           19.62642827431610       -9.92605156350218        9.08344161328786
C           20.02711878239755       -9.24460104873779        7.91905073196109
C           19.07958954316215       -8.77697521975345        7.01384033866376
C           21.46917080034819       -9.20554389961595        7.91798906380567
C           22.39323611673079       -8.66946380629463        7.01942986473948
C           23.73142708953474       -8.81125619972876        7.29013306271306
C           24.16684684049770       -9.48036616866815        8.43874752996220
C           23.27186894402795      -10.01392388593203        9.33143143785116
C           21.90537693646125       -9.87569008235119        9.07578667532735
N           20.77412485948591      -10.32447046798513        9.77561426170566
C           20.78530381718035      -11.14748465715846       10.98887240994772
C           20.36599648066530      -12.60309832639304       10.74455535742800
C           21.29308337742641      -13.30413443111197        9.72548786754557
C           20.96228830520981      -12.98846560688912        8.27567603320364
C           20.29404185321957      -13.37084307295356       12.08021736084818
C           19.54211577786024      -14.69967456221468       11.99369557136156
C           19.44681352693798      -15.41959392521359       13.33939411769888
C           18.70142161724531      -16.74138699477678       13.24753369408680
C           15.50434801826713       -7.95443007506574        6.77202497879212
C           14.58375234445197       -7.49507912680316        5.87026190638605
S           12.97204191687666       -6.76421415961914        6.21706157274688
O           13.16048024336251       -5.41667429777162        6.86789570791240
O           12.04598155696481       -7.82699003933225        6.75384055035480
C            9.60806640992137       -4.19934748178102        2.46514941564467
C            8.50879826595845       -3.61240621972844        1.89913465990571
C            8.05271272031756       -4.08455901446310        0.66497125017194
H            0.95829146353811       -0.50558092385312        4.95035572133980
H            2.17213588086615       -1.65454603651681        5.50448582320725
H            0.86507677225328       -2.19524631319995        4.46380355607421
H            3.06910404663807       -0.22469837850833        3.62224306249865
H            1.77377725337247       -0.76259171326061        2.58972751958429
H            2.58839035435808       -3.13334520184487        2.80687449154075
H            3.89769111001385       -2.59132979565868        3.82536770701367
H            4.67308853625729       -1.07897155653623        1.92116510997481
H            3.44891474966552       -1.78222909596144        0.90621501484633
H            5.72185292491821       -3.33233802922338        2.23741311486096
H            4.91080260349989       -4.96273146241479        0.22272709219635
H            3.37342656760617       -4.23661499163422        0.58333629385971
H            5.19749016360888       -5.68622278316039        2.59718625632891
H            3.71111287586585       -6.33862717245391        1.92008727010583
H            3.65467095599990       -4.97162043195967        3.02225599406216
H            6.50567956077277       -1.76206053185523        0.47125500700455
H            5.37179773553823       -2.46009906398877       -0.66320543886940
H            5.24592907149254       -3.87458210116759       -2.42495136539119
H            5.63540075805269       -5.52547072464246       -4.20644449501216
H            7.53168887876220       -7.08164136005463       -4.08171020756309
H            9.08089538671123       -7.01875952517806       -2.16303680182598
H           10.37670061569268       -6.50496298122355        0.09769046654145
H           10.74401505233233       -5.63123862005687        4.49365318710334
H           14.45265417175323       -7.28320571256072        1.70375892792085
H           16.23043248314724       -8.10953684791557        2.99149856928610
H           16.29811005875395       -9.79752235977581        8.63930488808384
H           17.96363316053958      -10.63040373185741       10.24434629875350
H           19.39214241583437       -8.28689515256404        6.11054461187865
H           22.04912108575596       -8.16067750416836        6.13637370028395
H           24.45834912203199       -8.40234378725792        6.60789879782803
H           25.22384358259546       -9.57786660662201        8.62397417076656
H           23.60560856830200      -10.53040469847309       10.21322188959228
H           20.12422005425250      -10.67510171673803       11.72022858792539
H           21.78637662937693      -11.11969595076057       11.42327014450841
H           19.35289776003048      -12.59250087831926       10.31375282092968
H           21.24649158301217      -14.38913444068463        9.87451618535829
H           22.33205716687635      -13.03577417506112        9.95085836782018
H           19.93950507674787      -13.28020605020999        8.03158421749546
H           21.62633411387695      -13.50737954722380        7.58135007709355
H           21.04664891170604      -11.92311300130759        8.06751324588208
H           19.81163073022718      -12.73888974786414       12.83483552583215
H           21.31035391735143      -13.53758106355358       12.45261227560052
H           20.02135057630345      -15.36111912589382       11.26386136892636
H           18.53402324180960      -14.52558900309295       11.59882567395108
H           18.95933176940357      -14.76074520776379       14.06978125462290
H           20.45784482636270      -15.58264951816174       13.73501083956315
H           17.68079775451887      -16.59485863658321       12.89002620620271
H           18.64158606056978      -17.24704049647327       14.21358790286863
H           19.19139021704769      -17.42301046325642       12.55015327978833
H           15.29527073749805       -7.88656767721856        7.82460348491311
H            9.97838591470806       -3.83082895412400        3.40574180713989
H            8.00390110803495       -2.79367356719735        2.37985768348793
