111
 energy: -13.764155253013 gnorm: 0.029119724412 xtb: 6.6.1 (8d0f1dd)
C            1.86049921274330        0.24203848255491       -0.10053032435026
C            3.05793681000233       -0.50032635086383        0.36868575442511
C            3.27757640276825       -0.49679100599524        1.81848977562542
C            4.51750294613692       -1.11823296289412        2.29130668712540
C            4.77121047809771       -2.55167402051812        1.90177782386213
C            3.79319949966007       -3.53163007346227        2.58823447359549
C            2.40645969346215       -3.36344084839146        2.21567205747193
C            6.15697390163246       -2.92131689859622        2.19454109894124
N            6.42492649728248       -3.07895733588499        3.51422120585964
C            7.33677597049225       -2.31766081235939        4.16731619491304
C            8.03434150189656       -1.28665007608470        3.59698221239039
C            8.83167696744239       -0.53634331275624        4.31662625163617
C            8.98450562090607       -0.74868520421276        5.62365235781946
C            8.35035098702809       -1.71631166721377        6.24224454020626
C            7.50576273710119       -2.55471513104856        5.56291140103878
C            6.71992324899698       -3.54094132883055        6.20522137047007
C            6.02557706593024       -4.59422793546518        5.76518328079070
C            6.30907594087412       -5.51748514158901        4.80629889320263
C            5.25585485783637       -6.35958467587172        4.33786872065720
C            5.08826057113989       -6.79285699188168        3.09073651163337
C            4.06666452285841       -7.47956280656920        2.63155828804584
C            3.79425432697036       -7.92417513816581        1.40736882108393
C            4.40114123398136       -7.86306486390425        0.22531276284457
C            5.54599895120490       -7.34908920960252       -0.13616735209552
C            6.31580215628778       -6.58829014836365        0.64114938421926
S            9.57494134355103       -9.74034853692000        1.39556183347458
O            9.08048131600145       -8.90001956441436        0.25399673216436
O            5.58383387571650       -9.46779482653647       -3.06011555432133
C            8.47778490290394       -3.33451181645277       -0.78602809429768
C           11.98258955559090       -7.72214163727606       -1.82284994579191
C           12.42604896019835       -8.34853902631547       -0.73586438887219
C           12.79914887206794       -9.65677082629708       -0.64132942850717
C           13.23487849392369      -10.25501450419768        0.47398425106878
C           13.40796684937131       -9.80316961040962        1.72120271385117
C           13.17045809509267       -8.60026244275549        2.24132296317481
C           13.36289343456252       -8.24227113877116        3.50174971620955
C           14.30270686519075       -3.46852990053801        6.12656626076483
C           13.35956987190145       -2.75477161334844        6.70650226105381
C           12.15150699982759       -2.41053248199238        6.14207530096019
C           11.66986429107485       -2.74718689532664        4.87102874753444
C           12.27088513276409       -3.49869861233450        3.93264408583775
N           11.74622292633433       -3.84344654275305        2.77668915604017
C           10.59580431863413       -3.50949057527299        2.42253198772355
C            9.83711674696885       -4.11892542999064        1.39189736900844
C           10.06145558426666       -5.58763850548538        1.23495991936888
C            9.99201343144907       -6.38813570714936        2.40009170871836
C            8.94065007519741        0.90793018478059        0.71854318679162
C            5.92440007342676       -0.77406908387578       -1.26439329501374
C            7.18271391603253       -0.77162319346299       -2.05918232048028
C            6.95287019097535       -1.03485429622765       -3.46619052227616
C           13.90947665564461       -5.33414740712074        0.85891244330990
C           10.16143842024339       -2.97796809931361       -2.92812686456620
C            9.20864011091106       -3.60422876176625       -3.56102273703998
C            8.13069195902641       -4.20290509762361       -3.01798211997060
C            7.12917149209303       -4.80822021723065       -3.20680822481069
C            4.77702527280230       -3.45398582460376       -0.90090106518963
C            7.51814622799944       -5.59633118310234        4.25553268868254
H            1.02178301216970        2.07289921966831       -2.63998059365043
H            0.59228631179281        1.06376008491074        2.72842464894306
H            0.94174125396266       -0.19341913820754        0.29604255146257
H            1.89887495821408        1.28242425194264        0.22479065851375
H            1.79168400096872        0.24350311392947       -1.18970251348507
H            3.12120974547963       -1.49103556330782       -0.04939327855999
H           -0.42456063539714       -0.25670790985142        4.75720035722813
H            3.13833799148264        0.48932221240957        2.22930089491578
H            3.84556316648191       -3.11195887227788       -2.59674260075151
H            4.67943829382453       -0.97347723254441        3.34599604356505
H            2.94860679092865       -5.43711447750747        5.49847402087702
H            4.63803089826640       -2.64323909514080        0.81420426622192
H            3.89466715962864       -3.41680937577812        3.67351671517291
H            4.11006123382516       -4.55993658936270        2.37711792275548
H            2.23628048392028       -3.46152882182748        1.18258302536481
H            6.78456859124163        0.65107805718163        2.58739784274546
H            6.67409325611774       -3.36736172435310       -0.44619317578961
H            9.50684472529704        2.09915696131392        3.56255542152476
H           10.03225829791584        1.70543784647750        6.68163711907286
H            9.81358720468785       -2.98498950317189        8.80642523650646
H            8.27436912316234       -5.94540490743727        7.24236539714971
H            7.51384022709032       -8.41587647911459        4.94245546129850
H            7.07478841193443       -7.94993768504474        1.94043220841347
H            3.29549001728034       -4.66842441957849       -0.91566700326753
H            6.59723676444871       -6.44169164784107       -2.65745719874494
H            6.72813542356420       -5.23448661154864        1.92176105953018
H            9.70875811629324       -8.37982648136050       -0.33508960259276
H           12.73995541472124      -10.25428305841814       -1.53574210343287
H           15.57234119957444      -10.54704547602289        6.33453088995884
H           13.72949242260369       -8.90443154989966        4.22952361426225
H           13.56110394426912       -2.41315452461008        7.71019479888339
H           11.49214925904895       -1.81008264741762        6.75037124318203
H           10.68849214948800       -2.38590681497577        4.60783108833037
H            9.94554507621410       -1.79782726922042        2.06408556269217
H            8.78349655470969       -3.94053612844616        1.64575119941758
H           10.03688607009282       -3.57267750692100        0.46212243667846
H           10.82324545123300       -5.87884677788404        0.52043422188176
H            8.14950952533770       -1.80317334134357        0.59657966260580
H           10.91342388159336       -6.43796213878747        2.92204851084501
H            7.73739709783305       -5.43527035811601       -0.38394315671959
H            9.70074110898616       -4.59250328102995        4.95005805219538
H            9.95068792058672        1.05606654478853        0.62113740063995
H            6.06602635543760       -0.57312810631098       -0.21966394638039
H            5.35827774336612       -1.67658321524178       -1.38358807203436
H            7.88274066477541       -1.51497711059678       -1.65378134989086
H            7.67954375232098        0.20097423769739       -1.94341313463464
H            5.04428068750743        1.92726871320142        0.68828068335407
H            7.82549492235315       -1.02467389236310       -4.05567226041776
H            3.94690413700616        0.30501115199459       -2.98013322196299
H            6.03741405510591       -5.16836773998574       -4.57776695886710
H           13.30994230064216       -5.97114292300976        0.32341700244981
H           10.16707378658174       -2.84156662743543       -1.88656433876373
H            5.78487634134702       -4.26486064669977       -2.27575078774494
H            5.28763489550415       -4.99924590970827        0.10097722251854
