66
 energy: -12.928458036678 gnorm: 0.000736718971 xtb: 6.6.1 (8d0f1dd)
C            1.04745312847314        1.07965775427569       -0.47291910802343
C            2.37286377949037        0.36301211974660       -0.27009736928407
C            2.94521300546150        0.56676355067137        1.13284419669251
C            4.27315415252426       -0.16216191130042        1.34587337570258
C            4.86002555633693       -0.01256181563140        2.77220738730630
C            4.39364654111488       -1.12149564487290        3.73513907595233
C            2.89343701108070       -1.18535623364575        3.96485429279692
C            6.39195614763681        0.03624516299816        2.72717052089830
N            6.97743357956936        0.24159035315661        4.05569225736872
C            6.99958173924033        1.45935788649273        4.74940160286350
C            6.63792268629083        2.75013526747412        4.35774020762916
C            6.75157583466498        3.77087966628914        5.26872768514752
C            7.21672374126818        3.53292626443404        6.56716544645372
C            7.57345811201065        2.26957980904023        6.97098066024402
C            7.46670275451327        1.21853232340914        6.05600923419160
C            7.72143748570122       -0.19630873897127        6.16616424748304
C            8.13980734097757       -1.00233681662988        7.23029388695833
C            8.23251773650623       -2.35565553091481        7.03480766202145
C            7.91765977986849       -2.94366265733806        5.79376575517340
N            7.98382069440210       -4.36991792354428        5.62946086515961
C            7.34630652958787       -5.32952117403082        6.44225416097123
C            6.54801038515703       -5.18116457257546        7.57622259093046
C            6.02779857396330       -6.30536704112845        8.16946220401100
C            6.28569257943821       -7.57856371877816        7.65197575380542
C            7.06419161785787       -7.74209960357387        6.53134173182595
C            7.59913197443756       -6.60823385716856        5.91638837852418
C            8.41609817305590       -6.43395739007529        4.73902538216674
C            8.95923633075311       -7.34151343613172        3.82732691726639
C            9.71011261670773       -6.85706916805087        2.78328444903286
C            9.93127294380235       -5.48456445809607        2.63184717239415
C            9.40286027834108       -4.57997463387266        3.51996675572618
C            8.63440546057165       -5.05431610388496        4.58275081706863
C            7.51560400289569       -2.15055585650857        4.73705867289438
C            7.41206641352229       -0.77327504274208        4.91981883079080
H            0.64564614574137        0.92463352230661       -1.47700234848233
H            1.15355132396343        2.15620545933620       -0.32402027506289
H            0.29633235168475        0.72947146565732        0.23854145826851
H            3.10555386015619        0.70262188922115       -1.01440355306049
H            2.25397308315182       -0.71212138264161       -0.45978549934344
H            2.20788081144439        0.24415388023164        1.87460758222240
H            3.08024806912353        1.63867964411899        1.32286433608684
H            4.99810316640289        0.21581981213713        0.61477019682743
H            4.16521668500269       -1.22619494518752        1.10823339392370
H            4.51408881111676        0.95049865997806        3.18042676501321
H            4.90257389535857       -0.98100797880665        4.69740718128643
H            4.75806204186287       -2.08602866289114        3.36098167773717
H            2.49869908460586       -0.21560207432349        4.27439856549403
H            2.63214242326259       -1.90653252154365        4.74291809051974
H            2.36144729420714       -1.48864016604805        3.06171767993316
H            6.73811583217542        0.83826760292706        2.06991068194725
H            6.78384337157778       -0.89374722348019        2.30991731734270
H            6.28064677452503        2.92712399682943        3.35883344254292
H            6.47751851533506        4.77268667404676        4.98079793599346
H            7.29354043763345        4.35444657961846        7.26065530055708
H            7.92616742966773        2.07766839711636        7.96907655798747
H            8.37228257091567       -0.55615272694756        8.18103782679701
H            8.55537989826643       -2.99753987106480        7.83568179071782
H            6.34505841183015       -4.19803727052136        7.96154288591114
H            5.40867008288591       -6.20560087364060        9.04605593151990
H            5.86404101455374       -8.44323197713815        8.13767634441898
H            7.26201435849572       -8.71735874856645        6.12265006568281
H            8.78549789343817       -8.39581222234342        3.95218258400167
H           10.13670785955589       -7.54419866029560        2.07098501779139
H           10.52701060686563       -5.13225897844530        1.80566074761791
H            9.57509173638362       -3.52365861366522        3.41516984276453
H            7.26293547165930       -2.59796951451487        3.79497477491106
