115
 energy: -23.932884178114 gnorm: 0.000739019356 xtb: 6.6.1 (8d0f1dd)
C            0.24727315866459        0.94797992173861       -2.18390507820533
C            1.17200640434634        0.98207752873871       -0.97766277661340
C            2.36357533755793        1.91985957076456       -1.17502869008194
C            3.27655421786349        1.98369702428655        0.04755592026029
C            4.53620742704280        2.87835361864918       -0.09829015964764
C            5.51266521651603        2.32131051568492       -1.16352501196790
C            6.79883564849435        3.13544442038525       -1.29194462751102
C            7.74808761070090        2.59358527444746       -2.35983426771232
C            9.01794057664115        3.41978285785810       -2.48726797897784
C            5.22350365954544        2.98743792501273        1.26706122032209
C            5.82792236010744        2.01563815036965        2.03516127130991
C            6.40070217211930        2.35887627920050        3.25914222524462
C            7.03519270669608        1.37269507712561        4.04122724490350
C            7.58761132757023        0.50052002597772        4.69523781525487
C            8.22821571255307       -0.52153832026835        5.42307006325021
C            9.61595914017316       -0.64070015792791        5.41690910467271
C           10.24103269521221       -1.65037487117834        6.11051404660161
C            9.49945745763415       -2.59395604069263        6.82732951352302
C           10.17209298603447       -3.65833239563649        7.56819687629967
C            9.79683379612027       -4.96558908589168        7.62674709815398
C           10.37603893553832       -5.96582886147842        8.53139951323397
C           11.38129755713434       -5.86105866959237        9.48581073752931
C           11.71822923161521       -6.97602428628926       10.22610891961053
C           11.06622414271777       -8.18688317820105       10.02910901244965
C           10.06378099923615       -8.30445380687027        9.08792117857634
C            9.71594274482740       -7.18818624199977        8.33919781034818
C            8.72671185591139       -7.01171171756179        7.27693572640902
C            7.86675035486391       -7.92428511370676        6.68037471940427
C            7.07789772078541       -7.50601836659088        5.62875521709216
C            7.15339031439419       -6.20027133076495        5.16264668273310
C            8.00557004958549       -5.28750219688279        5.74903099024985
C            8.78623977826292       -5.68093736830847        6.83098805504966
C            8.10893972456015       -2.45167757706145        6.85507876793987
C            7.48738788241400       -1.44108929109018        6.16071012438614
C            6.34582480427648        3.68726991095371        3.68900321472555
C            5.74296744636280        4.66448491712083        2.92551682944583
C            5.17851030056724        4.31177753853720        1.70732072141959
C            4.53196048376085        5.13964455119324        0.68254995537987
C            4.33181247839774        6.51267534296681        0.63561982806857
C            3.78391339724988        7.06901079054322       -0.50055176147026
C            3.44179992106280        6.28134026822836       -1.60227818570914
C            2.92110029764328        6.86521216278185       -2.77468883041197
C            2.48971062700345        7.34888436639870       -3.81084989334653
C            2.01929597695428        7.89852588788657       -5.01964020133691
C            2.33422993598610        7.30553475324872       -6.23982110624028
C            1.88374035039722        7.84210971470460       -7.42293762623233
C            1.11031894123458        9.00633774069772       -7.43397276935152
C            0.62141386017344        9.55784624092518       -8.69519274034222
C            0.58998302877058       10.87234285922382       -9.04742758921384
C           -0.08343196442252       11.40659483961859      -10.23722142550638
C           -0.80390095301770       10.77099332091690      -11.24188012076163
C           -1.36005153466774       11.53298209319635      -12.24931015123327
C           -1.20971217521660       12.91402627939272      -12.26532029767636
C           -0.50026608604427       13.55853487094146      -11.27241519573004
C            0.06195021520234       12.80131551816728      -10.25343467654937
C            0.86886070345952       13.19026456450869       -9.09765216609617
C            1.34125184136055       14.43447433456260       -8.70151782332704
C            2.16167021787515       14.51353411769035       -7.59525429914684
C            2.52340772525387       13.36807348826056       -6.89884329170688
C            2.05943431210498       12.12795388695816       -7.28618978713237
C            1.20594587909330       12.03047275963976       -8.38021667194931
C            0.77442149568376        9.58237932476988       -6.20505654687429
C            1.22621902520878        9.04297238125927       -5.02387431731819
C            3.64378563373059        4.90340281506029       -1.54275254687677
C            4.16843779941930        4.33499427465640       -0.40095896579689
H           -0.60125995720830        0.27687427441087       -2.03249042777753
H            0.77612065955081        0.61211839504248       -3.07795997554619
H           -0.15344791236798        1.93988826065090       -2.40169154840122
H            1.53812711833613       -0.02826902115242       -0.75161376094915
H            0.61434742408394        1.28844315791209       -0.08256815406434
H            1.99312043423637        2.92338192757427       -1.41242418737567
H            2.93329575115872        1.60376887346034       -2.05618097099052
H            3.59881116921025        0.97251960771901        0.31663104746530
H            2.70130693547222        2.34234372426561        0.90777479797882
H            5.00715724087080        2.28688164556069       -2.13296279728548
H            5.75486659195587        1.28265113773205       -0.91704793300225
H            7.31300780005647        3.16877175094537       -0.32379282037271
H            6.55165995609562        4.18014713473831       -1.51641768212042
H            7.22399244642600        2.55396186726970       -3.32407727676128
H            7.99630903055730        1.54921152720674       -2.12845945204807
H            8.79073295572515        4.45398027466178       -2.75305808982616
H            9.69089344352816        3.02479877292023       -3.25176158977356
H            9.56904320995788        3.44396743242901       -1.54522453524664
H            5.86346859017945        0.99793705872442        1.69087481708387
H           10.19606718486520        0.07135680675292        4.85481211676500
H           11.31423845794950       -1.73423514483103        6.09578746061817
H           11.03781254397576       -3.36916354469205        8.14008829825295
H           11.88235890752336       -4.92181217666253        9.63990825043487
H           12.49744202698296       -6.90619256768925       10.96743543502047
H           11.34691317915322       -9.04493031342539       10.61780712509625
H            9.55515287613420       -9.23872906685740        8.92718371857957
H            7.83241208109926       -8.93975168322845        7.03406515234969
H            6.40513184947349       -8.20296138373839        5.15623547938906
H            6.54227003967446       -5.89700941006422        4.32821605575622
H            8.08672499887289       -4.28904120987519        5.36091491847510
H            7.52701292574274       -3.14534136269307        7.43755007426645
H            6.41468409208712       -1.34952217413734        6.17923331859997
H            6.79226619993981        3.94238599453962        4.63495020124755
H            5.71207068400818        5.68811833260640        3.25487888587945
H            4.61923665322814        7.12518993698296        1.47198753579432
H            3.62760840127780        8.13267890802999       -0.55837831475823
H            2.94028756517364        6.41548069674022       -6.24361435392634
H            2.13469233811918        7.37512190469925       -8.35991637685811
H            0.22741541490277        8.84963094617667       -9.40468395117629
H           -0.92287384755696        9.70207400560635      -11.22584135038706
H           -1.91926616583716       11.05036503007695      -13.03415561333613
H           -1.65185046306272       13.48886309116490      -13.06263286646815
H           -0.37684866635009       14.62724082174086      -11.27799258493396
H            1.07395728914434       15.31298229195794       -9.26206867193081
H            2.53569113747523       15.47264495324245       -7.27616872969195
H            3.18009212112945       13.44827950257470       -6.04794239738352
H            2.37218573716969       11.24135171774691       -6.76629325500823
H            0.14349095476041       10.45468127470892       -6.19502755494270
H            0.96808588587381        9.50042523862686       -4.08390828079570
H            3.41755982095551        4.29511555453224       -2.39949201155072
