24
 energy: -4.860338774631 gnorm: 0.000846976889 xtb: 6.6.1 (8d0f1dd)
Br          -1.76873583053418        0.06367019836259        0.02235775044478
C            0.12003667514973        0.01661161241027        0.00744185628494
C            0.83779024019261        1.02969124218080        0.61563008466078
C            2.21242120359132        1.00175252976923        0.61461607902126
C            2.91172299602049       -0.05686687130188       -0.00514554967239
C            4.31178577417703       -0.09658303986313       -0.00319968757993
P            5.29314607791348        1.13766867811751        0.75479502914304
C            6.92580926266596        0.57562257266423        0.48987619576794
C            8.09841205629536        1.16530193424642        0.89805692511605
C            9.30218417926373        0.55428725948590        0.59015323738416
C            9.31870383370346       -0.63424372384963       -0.11966241585904
C            8.13887499316203       -1.22400658362284       -0.52767303524638
C            6.92363041270452       -0.61819496265235       -0.22336224351639
S            5.31164982422450       -1.28949569223630       -0.69632728713253
C            2.15285369476852       -1.07556309599303       -0.62085886767705
C            0.77836221795387       -1.03123982563992       -0.60946930703322
H            0.30399852319028        1.83781682923424        1.08867206451573
H            2.77178719794870        1.78862756879911        1.08798871764000
H            8.06746267267926        2.08974678001992        1.45103293380988
H           10.22879885240017        1.00471157491586        0.90548064393966
H           10.25958786630803       -1.10528223264373       -0.35212162993767
H            8.14266943201291       -2.14930171793241       -1.07717447843930
H            2.66778591175151       -1.89060416811135       -1.09718529688573
H            0.19867193245749       -1.81066686635992       -1.07576171874956
