127
 energy: -25.700429617943 gnorm: 0.000824613505 xtb: 6.6.1 (8d0f1dd)
C            1.53394789791670       -1.03893760066893       -1.17577321067252
C            2.75211392648255       -0.47840266112795       -0.45962289128419
C            3.32089982362010       -1.44476420812884        0.57863887581305
C            4.54797444925097       -0.89287344672955        1.30131589690216
C            5.12553619776205       -1.85851834519326        2.36636526161296
C            6.36279904615389       -1.22945070815045        3.05487949481617
C            6.99648347567146       -2.12970466257824        4.11362180785616
C            8.21323374130449       -1.49740603747977        4.78835907759259
C            8.84077882861366       -2.40523038258418        5.83398427095991
C            5.47831354294246       -3.21106667198122        1.74325083839132
C            6.35154762450698       -3.51657823504237        0.72163601090825
C            6.48732279445989       -4.83959202399547        0.30309864282795
C            7.35400792903608       -5.16282681162032       -0.76096390029209
C            8.07659326867058       -5.43342238705138       -1.70881591365234
C            8.88519262117547       -5.74119581056546       -2.82132783941415
C            9.66499439545712       -4.76252750157875       -3.43128723589403
C           10.44060728263737       -5.05958085336197       -4.52779064753439
C           10.46318977629660       -6.34816576822891       -5.06900403042812
C           11.30823407304804       -6.62271461233165       -6.22185263563589
C           11.18706461108958       -7.63696107918164       -7.12151897866459
C           12.19410183589061       -7.77746558674835       -8.20122195598172
C           12.55493256189968       -6.62586564497671       -8.90605148561241
C           13.47138622036066       -6.66314942679726       -9.93027537823561
C           14.05125667449627       -7.86101060825878      -10.28087192630757
C           13.70939858521784       -9.01103958618682       -9.60109078934595
C           12.79335013438546       -9.00508066136398       -8.55829795606232
C           12.51978646898240      -10.34450179196886       -7.91322598223773
C           11.71727990511220      -10.35906857571089       -6.60949530471254
C           10.30082316016020       -9.93179622929428       -6.81801325605273
C            9.24659826633050      -10.82804326438924       -6.78267210963193
C            7.95267006306343      -10.39881700484539       -7.00346411446386
C            7.70061731477366       -9.06794748861359       -7.27035110215597
C            8.74038675791274       -8.16659139846129       -7.31767087300698
C           10.05108977838215       -8.58459569275900       -7.09081872097334
C            9.69188809645121       -7.32893408007975       -4.43989276268953
C            8.91752877274942       -7.03091212487199       -3.34362450475641
C            5.73803329779133       -5.83536792293660        0.93556852226497
C            4.86304533577795       -5.53618250714872        1.95840009676914
C            4.73025900322723       -4.21512471998922        2.36260480181363
C            3.85857950548244       -3.61331185048252        3.37940906666059
C            2.92154962075722       -4.19561069716013        4.22170432960153
C            2.18840925311157       -3.38665734563569        5.06412310935044
C            2.37095759854413       -2.00133521616904        5.08477243275227
C            1.58363245015040       -1.18351715901453        5.92091098876488
C            0.87623820289801       -0.45051650341292        6.59620632493962
C            0.04047079339324        0.41708538235764        7.32761498763963
C           -0.84147827592392       -0.07105822910825        8.28778060246491
C           -1.67377622906199        0.77901614691286        8.97861779172667
C           -1.66821047218234        2.15488955790061        8.73140531689474
C           -2.56432610381292        3.02086950611787        9.48385727737804
C           -3.01590562867444        4.25614555026120        9.13282349705120
C           -3.89053892745940        5.00615738557275       10.06669775733909
C           -4.95165909522790        4.31527799021882       10.65812493524982
C           -5.82212369879121        4.93200737977969       11.52548802647331
C           -5.65508659700640        6.26536815535562       11.82278639909678
C           -4.61698973120620        6.96880546809581       11.24920838269012
C           -3.71813896749777        6.37326049399067       10.37507002217555
C           -2.63895599085246        7.27619186191935        9.82303061593362
C           -1.48092515149109        6.62238414377098        9.06434203086590
C           -1.92843199665030        6.02034507008190        7.77216042659748
C           -1.63097785576770        6.59412469749761        6.54813885793445
C           -2.08765798785564        6.02450013314024        5.37586401801247
C           -2.85503413477582        4.87764670148980        5.41653002591764
C           -3.16610492037208        4.30031607454841        6.62714746447588
C           -2.70682733197958        4.86113849313332        7.81818913715260
C           -0.76435578489448        2.63925147881200        7.78232075393761
C            0.06738009697846        1.78882887064861        7.09329085818477
C            3.32300826566108       -1.42794284089947        4.24282341759112
C            4.05872261588036       -2.23107983156615        3.39841713156558
H            1.13380928347958       -0.34068665177932       -1.91451608905857
H            0.73214156047550       -1.26678886462708       -0.47080084596421
H            1.77556462385195       -1.96675854037806       -1.69786279577626
H            2.50011568937766        0.47195706581451        0.02962205158514
H            3.53549309739838       -0.22470319352841       -1.18620447255049
H            3.57436559377541       -2.39676063429627        0.09657195349444
H            2.54439476446878       -1.69675080488236        1.31107236829778
H            4.29594126472636        0.05712298568534        1.78344525588293
H            5.33071613697981       -0.65738378958212        0.57310180702058
H            6.07058583284584       -0.27644272935076        3.50748259419618
H            7.10567814249485       -0.98007284078464        2.29039566791748
H            7.28304489106333       -3.08617705160304        3.65977782633250
H            6.24813042980807       -2.38957220046436        4.87213096839978
H            7.91983701879315       -0.54177738298397        5.24299383550390
H            8.95484261935907       -1.23191190597056        4.02315979624413
H            8.12619240753753       -2.65340294695309        6.62111837200876
H            9.70860795360117       -1.94425789787496        6.31125005479755
H            9.17102282654416       -3.34709940484980        5.39163394814346
H            6.91776515908065       -2.73861918575704        0.24242674854990
H            9.64985236324396       -3.76270601244499       -3.03174082482985
H           11.03637680287011       -4.29058274651703       -4.98932293641371
H           12.13226479794708       -5.94510106211418       -6.36357702576947
H           12.08520201728044       -5.69188789216378       -8.64836677566602
H           13.72959289662466       -5.76044532914345      -10.45997709650107
H           14.76628890793149       -7.90078019029130      -11.08670077041858
H           14.16298486761061       -9.94611981861998       -9.88466856324987
H           13.48611930241326      -10.83675866590020       -7.74443171749375
H           12.00220464995995      -10.97299673019872       -8.64755851727231
H           12.19105121641032       -9.69795571195772       -5.87473014781451
H           11.73010165016935      -11.35852182370760       -6.15734282791066
H            9.44538142144184      -11.86715154357894       -6.58282995546320
H            7.13837757576988      -11.10427426059021       -6.96950282496924
H            6.69019312901234       -8.73399217308894       -7.44184323409255
H            8.55348407915455       -7.12668377191348       -7.52381156226133
H            9.71411602426125       -8.33609991810410       -4.81355420348524
H            8.32284629508644       -7.79639659457747       -2.87454045497634
H            5.84863114388992       -6.85334813712115        0.60273998578939
H            4.28103793231918       -6.30445458422194        2.43626073067516
H            2.77041446560407       -5.26052469874347        4.20093150834191
H            1.44916362528796       -3.81909912957064        5.71664135144818
H           -0.86666744012760       -1.13040679461224        8.47915036730426
H           -2.35384273116033        0.38535319564399        9.71471945595647
H           -2.89538344018764        2.63419741448447       10.43209954553734
H           -5.09834247184338        3.27848242076470       10.40744875812716
H           -6.63448832931520        4.37626794960280       11.96517467811348
H           -6.33541978813730        6.75826371765945       12.49830636159118
H           -4.49583513341563        8.01375773279272       11.48137206387588
H           -2.23466876143024        7.86244087281442       10.65823343621494
H           -3.11783106666006        8.00890488240060        9.16255604671618
H           -1.02049685110333        5.84650862561078        9.68675330443945
H           -0.68635862880519        7.35242752809303        8.86618314077912
H           -1.04051801880759        7.49391467435873        6.51795578113051
H           -1.84747941196556        6.47837607182644        4.42817378705605
H           -3.21160258769357        4.43426569533176        4.50108250694317
H           -3.76271336804960        3.40524672921872        6.66868409350804
H           -0.71351774020593        3.69613871492618        7.59503171670045
H            0.75063965801426        2.17659147439371        6.35674964095229
H            3.47163059057435       -0.36333088168888        4.24330805317900
