95
 energy: -19.366009676767 gnorm: 0.000380500810 xtb: 6.6.1 (8d0f1dd)
C            0.94105504140573       -0.65843173402430        0.10714662849351
C            2.45673991607267       -0.62585467868598       -0.00223745049613
C            2.94807450641959        0.26251727893984       -1.14580657272794
C            4.47092911789060        0.28292345917690       -1.26302963714675
C            5.04799053634825        1.10853726486834       -2.44313518427721
C            4.59852755422237        0.53714887153981       -3.81022328393680
C            5.19933393589753        1.27027414271172       -5.00769205233674
C            4.72525620843221        0.70896487487942       -6.34789490567563
C            5.31641071925670        1.44908754796252       -7.53667681560976
C            6.57667050500622        1.12497011186565       -2.33039048956532
C            7.48406778551610        0.09154001463566       -2.41887523546334
C            8.84670930674785        0.35410930218450       -2.27507269276569
C            9.78678123454556       -0.68866514248897       -2.36816977546388
C           10.61420947854904       -1.58499026952799       -2.46040031695234
C           11.58075884815674       -2.59682060945217       -2.57389145655042
C           11.17681745474302       -3.92495200998609       -2.69799750220610
C           12.08721094013999       -4.94896862774625       -2.81578388029699
C           13.46070307346870       -4.68967481398331       -2.81597506978485
C           14.43185903518511       -5.72984263162619       -2.93914853753981
C           15.75692088954530       -5.45670175960481       -2.93921725982071
C           16.23591897923539       -4.11579813252492       -2.81528725164641
C           17.59805072949997       -3.80668915803733       -2.81333465596917
C           18.02542086429463       -2.50048871939963       -2.69162066795577
C           17.11675516478980       -1.46964853176462       -2.56898401147286
C           15.74331834232874       -1.72444025357043       -2.56562616450362
C           14.77244935719411       -0.68352382777720       -2.44181112053606
C           13.44783962277671       -0.95759252073306       -2.44375917413360
C           12.96093115481011       -2.29549341691842       -2.56843038874573
C           13.90037600794360       -3.34995825405316       -2.69104720717748
C           15.29657128253577       -3.06256994625589       -2.69030350385879
C            9.26831643675553        1.66644476888525       -2.04140845381923
C            8.36672915114045        2.70480207922875       -1.95246724854986
C            7.01242612370794        2.43205664447947       -2.09634395561256
C            5.85887874564296        3.33274832294588       -2.09293200801597
C            5.80183624156180        4.71631046591272       -1.96824078318327
C            4.58510911820267        5.34587885632723       -2.08622627856858
C            3.41361406074538        4.62522455272285       -2.34714973609349
N            2.16138607635002        5.29556713235063       -2.50013106028630
C            2.10324146047597        6.63580916558633       -3.01149251540805
C            2.95873032237620        7.05328444301007       -4.02840925024657
C            2.89515164038066        8.33926606750421       -4.51592001738176
C            1.97456086549188        9.23104750755932       -4.00036094567189
C            1.11509354856222        8.83042642359330       -2.99575073712370
C            1.17720178022137        7.54521241371490       -2.50629142621219
C            0.93951136616423        4.61781181688405       -2.16583409571171
C            0.84936794206674        3.83311603647898       -1.01851702043735
C           -0.32097433375206        3.17913943697868       -0.70636236090193
C           -1.42108730548606        3.29440688306683       -1.53398491318507
C           -1.34815440703831        4.07205147667717       -2.67356580532655
C           -0.18017888132627        4.73012182203051       -2.98630693445656
C            3.48417455477466        3.23519015406228       -2.46729262841332
C            4.69234002352439        2.59406911776729       -2.32319123201335
H            0.60148989543972       -1.30342272431932        0.92086539481397
H            0.48621668517799       -1.02539753868822       -0.81497089581032
H            0.53740923469133        0.33882934579707        0.28922546985836
H            2.84727295901045       -1.64295077059004       -0.14054222438869
H            2.89763145813461       -0.27912280352402        0.94193149147617
H            2.57161634253645        1.28080889018368       -0.99900364430862
H            2.50160433720304       -0.07944440637133       -2.08630064268613
H            4.84216866509833       -0.74368754250127       -1.34713435419445
H            4.90004162306622        0.67018958774466       -0.33284241816042
H            3.50726478383925        0.57635824423355       -3.87492199239246
H            4.86160481891783       -0.52445103842765       -3.85614320510564
H            6.29404563846219        1.22900411219038       -4.95568563636682
H            4.95289196318725        2.33736099310210       -4.94758125944265
H            3.62831261556980        0.74462473906139       -6.38756546834250
H            4.97643938493995       -0.35870829499951       -6.40279284177473
H            5.04574947051751        2.50654987497580       -7.51728715799433
H            4.97155164465663        1.03906670177396       -8.48874890565673
H            6.40679464684155        1.39620071130813       -7.53188736416684
H            7.14566541179576       -0.91257949031544       -2.59969912286487
H           10.12202187079735       -4.14193620279428       -2.70107325666269
H           11.74794601962268       -5.96611403734523       -2.91056293753685
H           14.08783791725332       -6.74539524173719       -3.03350706844905
H           16.47501412764084       -6.25289616710695       -3.03363804794372
H           18.31488423034981       -4.60407227492477       -2.90867469793474
H           19.08113565225079       -2.28301741792820       -2.69252389840051
H           17.46010921740778       -0.45380731072913       -2.47457179942416
H           15.11635296680886        0.33192687950487       -2.34632963364961
H           12.73228690799646       -0.15952865516557       -2.34977974280572
H           10.32233805359444        1.85806550294092       -1.93335881438284
H            8.69522836194354        3.71464859884382       -1.78032956823600
H            6.70329461153360        5.27592796556704       -1.79065650676843
H            4.51971924130463        6.41415164087272       -1.97720732550522
H            3.66402722369520        6.35011214815853       -4.43597729671167
H            3.56378715710516        8.65035860282166       -5.30205828415247
H            1.92612489534724       10.23786854884932       -4.38215360519201
H            0.39600705060772        9.52531126721763       -2.59335924160216
H            0.51619269805258        7.22844788512747       -1.71846168496092
H            1.70730903866830        3.75620143597543       -0.37346494495534
H           -0.38178798173098        2.58286146075850        0.18920026563253
H           -2.33630285198252        2.78023109664840       -1.28953919826835
H           -2.20645804587878        4.16337294349684       -3.31919563446295
H           -0.11249317726766        5.33127430260134       -3.87627384404071
H            2.59941111230244        2.67787501933031       -2.71179341336726
