58
 energy: -10.960489826995 gnorm: 0.000611967817 xtb: 6.6.1 (8d0f1dd)
C            1.09483302285165       -0.52641303289253       -0.15208552218381
C            2.55046466161805       -0.10009432446206       -0.24931984049900
C            2.99380401321375        0.75842961922824        0.93477957965943
C            4.45649657283500        1.18332994083626        0.84569750864067
C            4.91820927819635        2.10710845573817        1.99662298655407
C            4.15282160971796        3.42683583299250        2.03216427341110
C            4.10684801420344        4.14005245962927        3.21952818407944
C            3.48115616958941        5.36172653232704        3.28957596661592
C            2.87395276964034        5.92508962590810        2.16675133298445
O            2.26892101350700        7.17870578698999        2.31658479169723
C            1.72822765192726        7.71714863209582        1.13494130713756
C            2.91851159173424        5.20201540814341        0.97381390372253
C            3.54749504846886        3.98006493720249        0.91107697236451
N            4.66557649392808        1.39719005190320        3.27223652304670
C            5.54176389726414        0.42062295022850        3.69323925489420
C            5.17030396420638       -0.56870774551360        4.60473612947408
C            6.05968562121966       -1.55250785280163        4.96186247002147
C            7.33481014276540       -1.56340297568664        4.42112094090864
C            7.71787554431147       -0.58710416089440        3.52903664866250
C            6.83814410210936        0.41982540321596        3.14542825526333
N            7.28200759415032        1.42965450720948        2.29557886323226
C            6.43771535054682        2.30393756820146        1.84121318042286
C            6.99440763297725        3.33396266240310        0.95057077696833
C            6.54738344969027        4.65929125168327        0.91214945813241
C            7.12062829648625        5.57780491869038        0.07263285829080
C            8.18225642655329        5.23066007535583       -0.76813810496011
O            8.69941616048352        6.22685201263042       -1.60046397310905
C            9.76635594587742        5.81517512775830       -2.41998558065486
C            8.65247729022537        3.91475322400770       -0.71130295671708
C            8.07670689881354        2.99832722930873        0.13128516295238
H            0.78878849432427       -1.13942303238873       -1.00243019716753
H            0.43164378354907        0.33967237584851       -0.11595774980021
H            0.91355521849689       -1.10763793061256        0.75372025714776
H            2.72147634587519        0.45302156884687       -1.18223736869947
H            3.19966551014591       -0.98270934938586       -0.31977388664709
H            2.82561794087624        0.20636714165373        1.86673582029227
H            2.35065773432262        1.64265512558026        1.00935551519585
H            4.65903215570518        1.66893307159441       -0.11323886355352
H            5.09161535691057        0.29155336146190        0.85297641489233
H            4.58586784935182        3.72585576180934        4.08981813683398
H            3.45443091201258        5.91321823940878        4.21254534143585
H            1.30584627077204        8.69660870954266        1.36188756630805
H            0.93554096296648        7.06940128713469        0.75957196171648
H            2.51348108122291        7.83530651378320        0.38755286621133
H            2.46430007921760        5.60719934205113        0.08814506032484
H            3.59084565378487        3.46042405590109       -0.02949409494159
H            3.68400770670589        1.37240533930586        3.54372498221075
H            4.17528249390537       -0.55434423330435        5.01327685042408
H            5.76548957289462       -2.31680196704356        5.66229867510178
H            8.03179291207061       -2.33449138239689        4.70524691091231
H            8.71259151483574       -0.58021754101151        3.11915994168526
H            5.76514862995120        4.97200854809267        1.57721478827507
H            6.76614807391596        6.59297163506528        0.04782914736354
H           10.08480138682356        6.66380547735370       -3.02630159884461
H            9.43920428456987        5.01163657498754       -3.08080308879373
H           10.60366188686071        5.48762698986327       -1.80281467866913
H            9.47725330676915        3.61648478414399       -1.33217839015056
H            8.45311665206088        1.99083541126991        0.17396832992350
