100
 energy: -20.118574634950 gnorm: 0.000291053587 xtb: 6.6.1 (8d0f1dd)
C            2.16134382681021        1.10989269461761        2.29697459878054
C            2.96092661356719        0.53317259751925        1.13972887273152
C            3.54752347175425        1.61688940713321        0.23664273521393
C            4.33414264005884        1.05054048918647       -0.94362716729319
C            4.96659539588500        2.09377897216070       -1.90355733725894
C            6.12120079385500        2.88963395567291       -1.29944627519782
C            6.65518355780046        3.93455007320859       -2.03677709040299
C            7.72140345057232        4.66837423550083       -1.56106084569092
C            8.28026433050969        4.35637426324975       -0.34003290656516
C            7.77650924628736        3.30397242354662        0.39492983178166
C            6.71123609290167        2.56972443354700       -0.08489972096363
N            5.55659493946127        1.32357048392741       -3.02332015299803
C            4.83010085748068        0.97465755033503       -4.13307084808798
C            5.25655026608972       -0.05033453670744       -5.00977748705516
C            6.48230385503133       -0.82762112924491       -4.73734065906358
C            7.44044809471661       -1.02777751786614       -5.73464577735224
C            8.58486708129993       -1.74321784714024       -5.48309653264894
C            8.82157448859231       -2.30266407868267       -4.22526125923193
N           10.01080688208392       -3.02842155980336       -3.94420666743584
C           11.14856145515148       -2.91801817890773       -4.85721259853547
C           10.13897521881898       -3.88431276724794       -2.80047698556355
C           11.27261625082224       -3.83444342134835       -1.98880103872687
C           11.39133572918642       -4.66350200579349       -0.89609141586389
C           10.38501075055345       -5.56012334465137       -0.59228528542210
C            9.25687355971814       -5.62497308805575       -1.38707368779364
C            9.13400909938536       -4.79733003554717       -2.47994640213091
C            7.86047622319039       -2.10711096532705       -3.23132296412858
C            6.71606936921866       -1.39278129935407       -3.48120708586104
C            4.47937806518868       -0.32790703146592       -6.13121660388176
C            3.31662182359632        0.36213904166029       -6.37830749609843
C            2.87905654634018        1.37846052037473       -5.52782028581177
C            1.64237505477584        2.12318206936357       -5.83072055410952
C            0.50501787608457        1.47199432714255       -6.31607170619321
C           -0.64956577965446        2.16617054342999       -6.58112714691082
C           -0.72156551279930        3.54742115574987       -6.38239685577466
N           -1.91538724340444        4.27539267432329       -6.62668073111578
C           -3.17672075077674        3.55176820469000       -6.78549220754945
C           -1.93847068063110        5.70720813395678       -6.71758266935807
C           -2.88459575470895        6.45640226106339       -6.01792811633958
C           -2.89985922981360        7.83006435568149       -6.10944011909492
C           -1.97563518333243        8.48339006380656       -6.90186034765842
C           -1.03401491150357        7.75661251072997       -7.60449739052628
C           -1.01488743833891        6.38324779031594       -7.51504777082616
C            0.41624449121610        4.19766533085363       -5.90045583958450
C            1.56875277866525        3.50369974270948       -5.63583340512523
C            3.64757945326237        1.69166912324241       -4.38523363249166
N            3.24516316125341        2.73805709835870       -3.56797870492904
C            3.85596830123516        3.00025405176995       -2.45255376091478
C            3.32840771056183        4.13785486023160       -1.69866767532093
C            3.90432053275289        4.65895610550335       -0.53398697820866
C            3.33260748967142        5.71830161693094        0.13209535291726
C            2.17193890771576        6.29532570244478       -0.34347142665526
C            1.58620176262308        5.80683494874087       -1.49400339596569
C            2.15680890745435        4.74635700459455       -2.15886677269833
H            1.74523005124997        0.33000520143514        2.93873946689645
H            1.32912431123889        1.71775854439198        1.93674601847063
H            2.78174052894171        1.75438608274433        2.92268483417508
H            2.33012210377012       -0.13653846652132        0.54015361262413
H            3.77202128024386       -0.10309298619667        1.51808900571822
H            4.18315843381648        2.28085491667204        0.83243040988915
H            2.73590595820084        2.25361956340578       -0.13424249126624
H            3.66850151880516        0.41973790869076       -1.54210719327157
H            5.11699972278541        0.37402170920733       -0.58886604997971
H            6.21937489404371        4.16769348231975       -2.99326204917179
H            8.11772023084868        5.48330476611372       -2.14460428695895
H            9.11382820541860        4.92791400872668        0.03473328477539
H            8.21983383328043        3.05048153071192        1.34426377166803
H            6.34470043012950        1.73751005574666        0.48918625340819
H            6.45259591441779        0.89596644147495       -2.79753417083403
H            7.27527915677509       -0.59633173805606       -6.70698164358791
H            9.30857557481542       -1.87943446882247       -6.26662607067631
H           10.89595379552953       -3.34734825461546       -5.82490620898362
H           12.00923574378597       -3.45810161211031       -4.46782974503324
H           11.42469086318733       -1.87330268057355       -4.98882272131449
H           12.04536818963832       -3.12040549114502       -2.21416699900776
H           12.27025291728144       -4.61113988967592       -0.27428347842793
H           10.48029143313548       -6.20866338711706        0.26333037829814
H            8.47306307201658       -6.32677933396166       -1.15270752065459
H            8.26508578945889       -4.85466366340700       -3.11228708615675
H            8.03563969129937       -2.51370113475673       -2.25114154791122
H            5.97359973855459       -1.27447445358949       -2.71069844897311
H            4.79397959851897       -1.11065151655928       -6.79982477229840
H            2.73715114459397        0.13541672394069       -7.25647677847929
H            0.53713218399526        0.40590101440571       -6.46084353973488
H           -1.51231494895360        1.64024998671283       -6.94901713341122
H           -3.14798150990537        2.94106559050623       -7.68592034140748
H           -4.00929785605346        4.24617104802094       -6.87929568884099
H           -3.35400035053715        2.91193286392846       -5.92282416559332
H           -3.58951198436293        5.94682227067350       -5.38451597559419
H           -3.63260025237778        8.39754463851110       -5.55905936835379
H           -1.98943809312919        9.55885045499134       -6.97219104670730
H           -0.31482032527587        8.26548275832696       -8.22547531108484
H           -0.29368360505146        5.81048259096658       -8.07182334676397
H            0.37333798320289        5.25659208743961       -5.71717810767313
H            2.44048683558122        4.01955698787424       -5.27250255232353
H            4.81363229409941        4.23714830075190       -0.15259775737584
H            3.79369908296969        6.10047215191448        1.02841658572741
H            1.72566871132050        7.12484342712799        0.18046307996632
H            0.68133831100578        6.25517486019893       -1.87092378999541
H            1.69604547946229        4.36018509906285       -3.05056092078678
