50
 energy: -9.758879887768 gnorm: 0.000651023769 xtb: 6.6.1 (8d0f1dd)
C            1.50656668304174        1.24882537580364       -0.01837275169178
C            2.42188638950840        0.09041639165035        0.34268225981443
C            3.13771163391869       -0.49809661268805       -0.87271926019217
C            4.04533491791364       -1.67156178839850       -0.51566786498084
C            4.72119930534447       -2.34412759981181       -1.73310216686263
C            3.71018178157469       -2.93523036348117       -2.71356676789935
C            4.10002657153494       -3.14449091507604       -4.02655386859578
C            3.23718121032923       -3.70829170907316       -4.94378742889680
C            1.96511142901625       -4.07407321331645       -4.55818176346284
C            1.56218665967315       -3.87718788778005       -3.25437222356432
C            2.42862865672755       -3.31550837337287       -2.33841542393909
N            5.49639673651995       -1.30401089978879       -2.44929674650813
C            6.73711075768606       -0.93209637206549       -1.98280927607460
C            7.32165387368410        0.29066892414663       -2.32019111359614
C            8.53794200619049        0.64742781870797       -1.79310338459922
C            9.19501515252278       -0.20982940277919       -0.92435518641147
C            8.63596069051895       -1.42350577681562       -0.59261112888290
C            7.40410250801233       -1.81228465582994       -1.11016032714539
N            6.90262794991763       -3.07715994037349       -0.81114988543984
C            5.70257647147926       -3.39625365295996       -1.18523062080581
C            5.24770771210186       -4.74773355414818       -0.81330571009348
C            4.45158746049735       -5.55189131050574       -1.63488108844202
C            4.08032761439639       -6.81797922937687       -1.24514839204594
C            4.50182383778909       -7.32254539586682       -0.03106872618344
C            5.30713129379205       -6.55657752673461        0.78818501140794
C            5.68100213739029       -5.29037468976281        0.39921368683726
H            1.00063054671430        1.66111329556200        0.85763082150838
H            0.73549334149897        0.93713738822634       -0.72558075755463
H            2.06502991862728        2.06064554953919       -0.48829488499266
H            1.84860800531412       -0.70123205345334        0.84317307167694
H            3.16793923528854        0.41250379061258        1.08131631411413
H            3.72331684012794        0.28643331916524       -1.36617447993796
H            2.39776038200647       -0.81041891247421       -1.61855920811384
H            3.49321176780064       -2.42507950079250        0.05359297692283
H            4.83368946873729       -1.32501059172936        0.16052536455812
H            5.09780357736540       -2.86674068557311       -4.31968664252222
H            3.55802094405480       -3.86337379628479       -5.96093830069650
H            1.28870410076596       -4.51461813077049       -5.27287566816675
H            0.57075356554308       -4.16878864597422       -2.94810834979227
H            2.11051853773074       -3.19138051816811       -1.31865896467505
H            4.92054158253829       -0.65623065053458       -2.98499945554364
H            6.79903882162369        0.95130182398869       -2.98964943047464
H            8.98157695781485        1.59473846768723       -2.05298545014966
H           10.15016230556967        0.07205667679159       -0.51245977679842
H            9.14942819607693       -2.10013642111884        0.06795778766198
H            4.14806688958343       -5.18484397515602       -2.59705496139634
H            3.46304532829869       -7.42030380048072       -1.89171939089418
H            4.21056334880404       -8.31511464265076        0.27183298802392
H            5.64628126572565       -6.95196086136128        1.73178720368061
H            6.31835363130935       -4.69370476535266        1.02867934181882
