55
 energy: -10.578311486505 gnorm: 0.000728225473 xtb: 6.6.1 (8d0f1dd)
C            0.17935113380013        0.68225381237211        0.18362682600622
C            1.55576918307459        0.20898485669046       -0.25467180798853
C            2.36809737780427        1.30958792687976       -0.93707652594740
C            3.75028244151417        0.84961735651391       -1.38969542322647
C            4.53017990721124        1.94053593258155       -2.05736640961875
C            5.86172575922576        1.78624438816085       -2.34639506964137
C            6.59223685699887        0.52811389510738       -1.97523342260697
C            7.33672688641476        0.64755733636692       -0.64533902583432
C            8.10849216352347       -0.61823599216464       -0.27492036919534
C            8.85518308421449       -0.48618048544211        1.04262651291334
C            6.57435530514047        2.87323299859281       -2.96005865971780
C            7.93954231355522        2.82127047218573       -3.26443775476793
C            8.57959157885456        3.89452718984878       -3.84939996630767
C            7.88432714614115        5.04459231804408       -4.14654795560702
C            6.52456626384693        5.14847153362124       -3.86349447897093
C            5.86764291731644        4.05304641575027       -3.26401359398489
C            4.47873039547525        4.13514765202693       -2.95555321319589
C            3.79084338633776        5.29000676773696       -3.25622341522322
C            4.40100089170615        6.41241948738125       -3.85803623325749
N            3.65150934256720        7.48649698180633       -4.10509311382723
C            4.30167028276416        8.50892045414147       -4.67347852769772
C            3.59285078823705        9.69435321921206       -4.97333782842596
C            4.21060167406072       10.76155615332965       -5.55190312076628
C            5.57147108601134       10.70154004161311       -5.86447918824627
C            6.28912551661667        9.57548697726460       -5.59047322991778
C            5.68699760996690        8.44964952432820       -4.98944561858334
N            6.43762672684268        7.36428964754903       -4.73710164633974
C            5.79204976781072        6.35719257949795       -4.17440975191162
O            3.81872538145926        3.07837307780213       -2.35622510787844
H           -0.39113722954999       -0.11034187821326        0.67276351700683
H           -0.40695054989285        1.03158641692522       -0.66819911777824
H            0.25311889424232        1.51465402875533        0.88573569338966
H            1.46239778413193       -0.64747923566509       -0.93531731361293
H            2.11706312021861       -0.17359685661963        0.60802724338828
H            2.47504886999988        2.16784953284351       -0.26299390357282
H            1.81738676714117        1.69994827631721       -1.80134165765215
H            3.64880825692235        0.00532024918834       -2.08002201324553
H            4.30868381221704        0.47432273106576       -0.52567260425122
H            7.29029179884955        0.26002533526893       -2.77547313699803
H            5.89499669537172       -0.31521307430450       -1.93580153646198
H            6.62705485262814        0.89619308971158        0.15261140436993
H            8.02431908008747        1.50079224324309       -0.68376396531176
H            8.80956981278339       -0.86408427348293       -1.08348200248217
H            7.41359935432775       -1.46744911172785       -0.23346253050440
H            9.57291312647700        0.33542020814164        1.00871724188615
H            9.40599018861882       -1.39493177064672        1.29553556327972
H            8.16899639650335       -0.27926012992454        1.86580189337096
H            8.50348338019119        1.93439218660096       -3.03738181790018
H            9.63163508900998        3.83242675277787       -4.07477225108166
H            8.38032563301466        5.88393292175869       -4.60174124221176
H            2.74550280690573        5.34130555490903       -3.01915067870106
H            2.54532444140393        9.73249730329782       -4.73067935879334
H            3.65103842550884       11.65609740529642       -5.77110320342786
H            6.05211499955631       11.54919180430527       -6.32477854466053
H            7.33703102484618        9.52168777138423       -5.82878855827896
