50
 energy: -10.417657385230 gnorm: 0.000602500346 xtb: 6.6.1 (8d0f1dd)
C            1.06822948856887       -0.31875785142013        0.21709835317147
C            0.22581438145726       -1.31997039874021       -0.11731169859574
C           -1.23001641526746       -1.19076152272210       -0.16442333565582
C           -1.99832771992083       -2.17633142440943        0.39450172230272
C           -3.41380336631812       -2.09730626247717        0.45721630308591
C           -4.16414968419747       -3.11558379922384        1.07419437212526
C           -5.52485109921291       -3.02802207275441        1.15920011250020
C           -6.18497530372333       -1.92284522679477        0.63267352912652
C           -5.47902324641032       -0.91931013123643        0.02387805611988
C           -4.07933818469825       -0.97456574621106       -0.08401687910738
C           -3.29681104093074        0.06204394645860       -0.73652044185865
C           -3.89928743875088        1.17260403732998       -1.35243027678079
C           -3.15419632512952        2.11679952942668       -2.00536978462117
C           -1.77471349962272        1.98596815243550       -2.07990518034140
C           -1.15667098516626        0.91945148821486       -1.48767313647944
C           -1.88787692943500       -0.05375647726216       -0.78672020887275
C            2.51322464946521       -0.37917261489219        0.23081771457701
C            3.22545414066694        0.77364992803195       -0.01524942273631
C            3.13940115825777        2.09815611141574       -0.33400935933577
C            4.21485207157772        2.88893688773912       -0.65341478146804
C            5.62760175886622        2.67881131212938       -0.79733725552145
C            6.54279337034404        1.64674699461954       -0.73407509513434
C            6.41378644903354        0.29637554842337       -0.46225685411507
C            5.28625088970161       -0.34264984602972       -0.15956716300864
C            4.71252207583582       -1.53425796685091        0.18970691855111
C            5.47618483256770       -2.71780967339448        0.35075290843972
C            4.88518763213188       -3.87187407270302        0.75453228787588
C            3.51029108229020       -3.90309771990563        1.03641950129669
C            2.74081256020698       -2.79048494827614        0.88309865335568
C            3.29199623402348       -1.56847898524839        0.42184632643606
H            0.63125188873328        0.63699784077971        0.45136778579514
H            0.63888315467983       -2.27502016725287       -0.39057377957083
H           -1.51086138008551       -3.02454869161643        0.84074555930045
H           -3.64913544491384       -3.96725525425914        1.48460352031987
H           -6.08854732134767       -3.81272173202790        1.63699574584881
H           -7.25846553673026       -1.85761992329886        0.70647632215773
H           -6.01243794387527       -0.07487588036523       -0.37271447514537
H           -4.96779309504155        1.28341437115228       -1.32407675144593
H           -3.63848156911776        2.95816854354440       -2.47408819733960
H           -1.19302422366410        2.72217670752289       -2.61056699989483
H           -0.09188313040938        0.80767472466041       -1.58620542991334
H            2.15401634524529        2.53448881928814       -0.33985004424803
H            3.93097210101512        3.91532022568150       -0.85072450938851
H            6.11819503873992        3.61549595537887       -1.04204687870012
H            7.56715813559025        1.92903995375262       -0.93310798337679
H           10.56333982402809       -3.68840694356631       -0.30843247734578
H            6.53381059448188       -2.68273900931109        0.15319552706987
H            5.47448892163216       -4.76598089693196        0.87660650322131
H            3.06488912041563       -4.81837779885101        1.39100739549492
H            1.70760298299299       -2.82214803651165        1.17744327961752
