89
 energy: -18.633680789284 gnorm: 0.000483462177 xtb: 6.6.1 (8d0f1dd)
C            1.60806852125313        3.05761597642086       -0.48163639078913
C            2.82166629077717        2.24182834931532       -0.06738896352136
C            3.50443692689640        2.79462848150247        1.18235803967603
C            4.74970456307328        2.00037678640365        1.58631605070502
C            5.46266934652680        2.59061088678283        2.74309222777047
C            5.15999967378889        2.35226853287483        4.01983216791372
C            5.82348562443264        2.92726152510630        5.18191539389742
C            5.44880441388178        2.63907016766249        6.51665689608793
C            4.41290401441206        1.70403824334157        6.82381867908948
C            4.04513571324365        1.43032949220768        8.09603091311601
C            4.67656775011351        2.06749786961213        9.20414910739505
C            4.30554116801133        1.79800596499400       10.52164183642361
C            4.93276890105689        2.43041500748601       11.57728934349546
C            5.93821648849895        3.34167762763331       11.35015574522543
C            6.34874213976151        3.64737646887437       10.04580932675843
C            7.38343389453203        4.58586208609359        9.78521909531697
C            7.76482433493323        4.86606049880239        8.51379547449746
C            7.14699116792116        4.23414720175781        7.40968217716523
C            7.52647641272306        4.51243049129613        6.06526760266142
C            8.45956705101094        5.40478530884526        5.49858482124771
C            8.38516115935369        5.27794636430962        4.11738245499086
C            9.06992753985908        6.07886658421780        3.10641660161466
C            9.13572486508115        5.62214773309576        1.79160942684656
C            9.64386474678173        6.41038287583513        0.79381948714064
C           10.11864747494254        7.69026774955324        1.07420802668614
N           10.57390469482899        8.54690889509030        0.02185797552894
C            9.88100905033335        8.56624782310594       -1.23378873239097
C           10.56283145125398        8.82176897227785       -2.42089535726729
C            9.89299164117620        8.85730147280487       -3.62298078932447
C            8.53007816660634        8.63710211581774       -3.66333701679107
C            7.84022450246580        8.37758791303080       -2.49569446272447
C            8.50758960594509        8.34071380311930       -1.29260595874526
C           11.68513221409593        9.42628321184838        0.24934064116940
C           11.69383440970836       10.71940014854749       -0.26754018465685
C           12.76117826786241       11.55857559629941       -0.04068530086223
C           13.83862929644065       11.12308501452386        0.70595993302067
C           13.84401443722171        9.84392760117566        1.22697330961188
C           12.77763079434844        9.00318998120071        1.00234377296472
C           10.09697552848292        8.13365130956689        2.39679160360367
C            9.57835837105926        7.34589580820588        3.39425615811849
N            7.42828232879453        4.32289332201358        3.83147779600187
C            6.87654899668399        3.85221422410688        4.99800912436882
P            6.80050073910020        3.71646446504806        2.32436840121175
O            7.84581879631822        2.94727252647587        1.48234059529400
C            6.13816064513416        5.08961455136679        1.38967759585182
C            5.69222174922381        6.20428560849923        2.05659929889451
C            5.20392116178405        7.27875517226538        1.33531460114373
C            5.16538708956879        7.21915358735756       -0.04454342102820
C            5.61659863588411        6.09259872379568       -0.70515788904655
C            6.11050777286354        5.02215390183383        0.01855582967913
C            6.11012357891401        3.29320161034167        7.61620100191531
C            5.71263717040811        3.00219829867260        8.95473542673185
H            1.12861970800998        2.65523044686173       -1.37675696894478
H            1.88260593884441        4.09273482790625       -0.69336189991441
H            0.85806896526561        3.07968433431883        0.31109815390508
H            3.54891914406874        2.20374117408989       -0.88930320405687
H            2.53582222118959        1.19615000637841        0.10712545935631
H            2.79447021330833        2.81676681696834        2.01775780350521
H            3.77734872647713        3.84343124389047        1.01664884258536
H            5.44385825198880        1.94071516218387        0.73763309981000
H            4.47743171597487        0.96125445130630        1.81180209067781
H            4.34150648291591        1.67734981861325        4.20111261884237
H            3.91300298725232        1.19316915001748        6.02188960264257
H            3.26221320769932        0.71802540735596        8.29233737945885
H            3.51953741926126        1.08657427665819       10.70794340883981
H            4.63119842919820        2.20781889315018       12.58777195854006
H            6.42174901454639        3.83147190683524       12.17774892233990
H            7.86272459401515        5.07346950070687       10.61654314476156
H            8.55028713391416        5.57785579768336        8.32925849035692
H            9.09815672417838        6.07989707487121        6.03981328621183
H            8.76752899019618        4.63827622047915        1.56526667722181
H            9.67635397272812        6.05263541637915       -0.22049417871405
H           11.62613699127700        8.98240167370659       -2.38507139852064
H           10.43306252366315        9.05659145344623       -4.53410545366508
H            8.00594283695812        8.66600233030939       -4.60460301887596
H            6.77730241563308        8.20486100855135       -2.52627316630583
H            7.97203906385966        8.14086685564788       -0.38109971230445
H           10.84626803501330       11.05652912766281       -0.83822226585043
H           12.75560452537627       12.55732935714463       -0.44564905706173
H           14.67430453167250       11.78055085802371        0.88179114976710
H           14.68473093534594        9.50297833958372        1.80877473525057
H           12.77796371573151        8.00264837855461        1.39827563527093
H           10.46096692343617        9.12184146018733        2.61722937787513
H            9.52736678271216        7.71623495644807        4.40321485241067
H            5.74489949951864        6.23346764413729        3.13343861281622
H            4.85807258515040        8.16024464092815        1.84963076126901
H            4.78347039916091        8.05519453525359       -0.60726243940049
H            5.58774689986401        6.04641674783937       -1.78128816139146
H            6.48701621524104        4.14032477346302       -0.47609463244681
