20
 energy: -2.847020620530 gnorm: 0.000631375836 xtb: 6.6.1 (8d0f1dd)
C            0.89750653399699        0.03733490024846        0.02619343140376
C            2.41772759659597        0.06830003633102        0.03955369066026
C            2.97802436034898        1.37509828745147        0.60344864237010
C            4.50640904937687        1.41279544903105        0.61971540993951
C            5.06672361843694        2.71959057021578        1.18360756864326
C            6.58695174772531        2.75055899218707        1.19696896902715
H            0.50800537177557       -0.90032216513298       -0.37841363241742
H            0.49052792836346        0.84978850027849       -0.57987482579241
H            0.49052953912921        0.15377938867700        1.03309065384154
H            2.80829314992728       -0.08623899021024       -0.97531192080084
H            2.80829512765143       -0.77608683176265        0.62337274244879
H            2.59416674778560        1.53280556249177        1.61917919126164
H            2.59416656511487        2.22228806714351        0.02133953423824
H            4.89026716268506        1.25508485691892       -0.39601425981472
H            4.89026693423230        0.56560582923575        1.20182289743281
H            4.67617000226812        2.87411086524365        2.19847985780675
H            4.67616788487326        3.56396838724420        0.59976880944300
H            6.99391982996333        1.93809594895431        1.80303195983488
H            6.97647330250232        3.68820848004580        1.60157244786264
H            6.99391754724715        2.63410386540763        0.19006883261106
