89
 energy: -17.066970719862 gnorm: 0.000598291809 xtb: 6.6.1 (8d0f1dd)
C            1.02789563002924        0.16837064739637        0.29778947908735
C            2.54702405052606        0.15219417709027        0.23831274210299
C            3.19599108324921        0.53318063540249        1.56960378779993
C            4.72308792751161        0.50474007252236        1.52027828068863
C            5.37623903175541        0.88121070607581        2.85470229361076
C            6.79240354940051        0.84511614607549        2.84217969125653
C            8.00905783462316        0.80488537655023        2.80620277842334
C            9.41795354403163        0.75020081085487        2.73235184224590
C           10.08689583594111       -0.33459990410419        3.28155107948944
C           11.46772475815446       -0.46232582928696        3.23537463791430
C           12.08196007239441       -1.59211200172147        3.81829556773813
C           12.62968063181942       -2.55733804934081        4.31979555045702
C           13.26912652895595       -3.66948352799081        4.92081616524616
C           12.94806706749889       -3.85994038816642        6.40727640804075
C           13.66627316568395       -5.05809980037354        7.02698793774068
C           13.34441743281161       -5.24849202607271        8.50977697881586
C           14.07545263431935       -6.43195867140648        9.12343393121959
C           12.23067638413790        0.54416521193503        2.60504617536765
C           13.65068371645907        0.46599679296491        2.51265391222331
C           14.36911825618689        1.43584310399283        1.90428436798543
C           13.74859599405792        2.58236956166788        1.33417991916858
C           14.49334941948249        3.61098283384427        0.71727219416638
C           15.97208686977911        3.54307767298183        0.63366521840954
O           16.55266879275579        2.47799291937390        0.55358774774993
C           16.76011924649362        4.80254708673801        0.63649419609899
C           17.93127891875210        4.86995616947120       -0.10427192824573
C           18.69128872997462        6.01927485603683       -0.11424782958754
C           18.29328527997444        7.11612684593998        0.62327029309098
C           17.13772005215009        7.05767494039036        1.37639982880317
C           16.37765505719475        5.90851377112870        1.38784791727589
C           13.81939977258205        4.69723637191232        0.17179246062383
C           12.44205219623967        4.82559130722755        0.22288330579236
C           11.83168783548422        5.96960464570738       -0.33504896638939
C           11.29338128171840        6.96488248305676       -0.78484422615112
C           10.66029909158198        8.13870435464831       -1.26197004397023
C           10.39225604969241        9.19143967517456       -0.18088679728273
C            9.70780190720269       10.44691908161273       -0.71960610132487
C            9.44506487934871       11.49529651703592        0.36233830822784
C            8.76486839740712       12.74264716629463       -0.17886640842763
C           11.67846733397817        3.81392714201615        0.84496587999302
C           10.25760981225947        3.88803019289194        0.92860705648400
C            9.53475496624818        2.91423763888344        1.52642671641434
C           10.16238501448389        1.77164415780890        2.10391297020046
C           11.57408896320705        1.66526004302813        2.03968545557092
C           12.33712287249547        2.69035519568242        1.40281922046749
H            0.57624131327962       -0.10411940185115       -0.65878158421841
H            0.65368318363595        1.15778911288235        0.56724103838183
H            0.65463712501857       -0.53157906092268        1.04772801289193
H            2.90235356714213        0.83338691234282       -0.54627269643510
H            2.90247218583185       -0.84099435378244       -0.06682487700490
H            2.84092641760107       -0.14146060286958        2.35816462012839
H            2.85528677023527        1.53034289385249        1.87388457451862
H            5.08174893730473        1.18034588952039        0.73426309639136
H            5.06468550853484       -0.49197793234515        1.21573890389302
H            5.00766460400147        0.21081201914853        3.64221655701147
H            5.04366800414581        1.88389730538622        3.15377627417360
H            9.51220911423317       -1.10824707241602        3.75957792750179
H           14.35505137471094       -3.56908593023291        4.79344524306850
H           12.99972115948832       -4.58018172306143        4.36994899672482
H           11.86444744370205       -3.96933847177334        6.53626806251227
H           13.20901393652523       -2.94729616352885        6.95669924382696
H           14.74949373372252       -4.94462452877172        6.89743194781371
H           13.40788316583680       -5.96931996627965        6.47389546671605
H           12.25981944386034       -5.36833140872896        8.63290495067375
H           13.59121453855867       -4.32792505970149        9.05521361350421
H           13.81744634344702       -7.36256790018618        8.61453218955872
H           13.83630272845600       -6.55902971096738       10.18168964810196
H           15.15754916927893       -6.31185583422400        9.04414483438960
H           14.14749183843561       -0.39137395741300        2.93187988038582
H           15.43756805312444        1.34649337214439        1.82205067648263
H           18.23598873702880        4.00204072017508       -0.66399628760347
H           19.59748135141868        6.06035313746702       -0.69628403478006
H           18.88729568649326        8.01545225018301        0.61529582533923
H           16.83118000938340        7.91147188831198        1.95843849525408
H           15.48356153001912        5.85405516621541        1.98483683416419
H           14.38763539683748        5.47018312663589       -0.31411335983128
H            9.71431084988127        7.86527050758686       -1.74759246188580
H           11.27388759157657        8.58074389045483       -2.05790271187017
H           11.33716614866794        9.46420218044419        0.30466394834929
H            9.78128040303279        8.74918814770938        0.61546754678348
H            8.76277537785154       10.17235114046124       -1.20384765067649
H           10.31909404710707       10.88613480931977       -1.51732228123813
H           10.39395719593660       11.76205863572690        0.84642893911490
H            8.83644992404658       11.04850510194515        1.15974811887835
H            9.37258266877892       13.22111473200168       -0.94916452573980
H            8.58284924318365       13.48349796177051        0.60297189549688
H            7.80187672087384       12.50184280067014       -0.63303503343543
H            9.76215670234860        4.74198587540789        0.50074072460170
H            8.46265288536178        2.99097338829898        1.57571942333469
