96
 energy: -17.224648176514 gnorm: 0.000671439407 xtb: 6.6.1 (8d0f1dd)
C            8.98965960920854       -1.36672306496844        2.06451527091703
C            9.68340015129961       -0.98288092725617        3.36139946318685
C            9.99440700963391        0.51060000795184        3.44133473048745
C           10.70944480256975        0.91121909722773        4.73025665861322
C           11.05244339539234        2.39216341474592        4.76855792239796
C           11.79814382188473        2.76033260745030        6.02106159323111
O           11.22699940710530        2.62467234782590        7.07844044720251
O           13.12092494025328        3.18864434506461        5.90681341893001
C           13.55513382650218        3.79341269392380        4.73597495869063
C           12.74260964820278        4.70496730277916        4.02735491936791
C           13.20401429274538        5.46495572608025        2.89823696922892
N           14.05693515772742        6.56939505874987        3.00135832636519
C           14.79780636433574        6.68960157122960        1.85819966366633
C           14.34495074258188        5.69977624425623        0.94738026621994
C           13.37700556314817        4.95380890509849        1.55791928915893
C           12.75076495481363        3.70146737630812        1.03889004838198
C           11.22911406516187        3.75674286814218        1.03375272308703
O           10.64137614326191        2.50172626899505        0.70354973508968
C            9.24220025848779        2.58661644099705        0.56401562611532
C           16.03451996017702        7.41567563940893        1.74129846181368
N           17.04572925803034        6.99260049892713        0.96454022761831
C           18.12342693543086        7.73597469111506        1.26915207780104
C           19.43255356497238        7.45939827233102        0.74955688791328
C           19.79158700640797        6.20295125885753        0.35207798011146
C           18.99178961441487        5.03611291321103        0.69247977473178
N           18.59335481392869        4.72983370557640        1.98062390888014
C           17.55858442259699        3.82877273413575        1.94514004215319
C           17.31923169121826        3.52111182823366        0.59492708550873
C           18.21496545447153        4.23047275506700       -0.18220892532376
C           18.18434122320240        4.35250929170773       -1.66779784553512
C           17.28548243482089        5.48858395967425       -2.13294896509738
O           17.28238891589296        5.63010227754858       -3.54887206724825
C           16.45584529872180        6.68476729931786       -3.98099284121518
C           16.69548289874905        3.52477043206930        3.08100939818421
N           15.36409173590390        3.67180666640468        3.04668090169388
C           14.91546731601047        3.53569902863804        4.30764164170173
C           16.00257410887686        3.22977778798222        5.18218353226909
C           15.92863274720713        3.10867848706585        6.66345845390004
C           15.64975637025836        4.44213173326303        7.34767417551878
O           16.65881264929459        5.41824857060496        7.09822400377081
C           16.37655026226996        6.25328258417169        5.99918064401308
C           17.12520452826406        3.26562648364629        4.40842270150335
C           17.77045467031023        8.73133492000133        2.24122101614518
C           18.69438695480015        9.69224205448614        2.91055874907510
C           19.44000052337065        9.06369468844233        4.07829392390385
O           20.32583124966963        9.98278134914418        4.70788736849677
C           20.99185363712940        9.41829698386872        5.81237426377808
C           16.46601950241411        8.49622879492628        2.55908481593668
H            8.77399035965092       -2.43604934476544        2.01499786829050
H            9.60540901554033       -1.11506190861628        1.19932621069678
H            8.04321564825395       -0.83541179492623        1.95127181358652
H           10.61452417735506       -1.55319562039657        3.47470299787630
H            9.06620792017174       -1.27185060305977        4.22200290027865
H            9.06652876821014        1.08612113681293        3.34284783457945
H           10.60418626317775        0.80480496338674        2.57829631797937
H           11.62763954938929        0.32283034897305        4.84473539520172
H           10.09518140783804        0.65573500465382        5.60187545871584
H           10.14156512742726        2.99478721673800        4.70532791156448
H           11.65007526535239        2.63987972342293        3.88833898517348
H           11.81554882032894        4.98241702034378        4.50734120301278
H           14.29593014784843        7.00193676236642        3.89352063963540
H           14.77695745261943        5.50041420185170       -0.01680982764033
H           13.08162767525951        2.85731606690176        1.65285327183834
H           13.11604136672088        3.48962401199936        0.02892841945682
H           10.87569955659875        4.50703036917298        0.31759940227949
H           10.85060352918060        4.05404113529925        2.01768945855626
H            8.84722099528171        1.59312131542969        0.34992611311582
H            8.99348947666116        3.25416299134308       -0.26174658976021
H            8.79638491303246        2.95993434496603        1.48670786968149
H           20.13532075051499        8.27113051203347        0.66552039886935
H           20.72097436989399        6.06040187110916       -0.17847703049094
H           18.84980089218026        5.27803554974451        2.80279257689013
H           16.51703050921801        2.90268432518139        0.23060039797924
H           17.84823362296872        3.41027552149415       -2.11239886987107
H           19.19933962547832        4.51325587359267       -2.04511128860878
H           17.61046651105441        6.43915736606547       -1.69424723677715
H           16.25415756832621        5.31985997992183       -1.80571288281918
H           16.50178356671674        6.74279323783733       -5.06896789931613
H           16.80406061141838        7.62708397055539       -3.55606790116977
H           15.42578943732740        6.49801234073146       -3.67461121243578
H           16.87163431635518        2.69652311787524        7.03665676375577
H           15.14782396089793        2.38231526048108        6.91908841551999
H           15.59307483345829        4.31934327047943        8.43645842290334
H           14.68251052015564        4.84846331728973        7.02865064272461
H           17.21147138058128        6.93988315222250        5.85844975848684
H           15.47123387632626        6.82799099984682        6.19755967094084
H           16.24844064567733        5.66227352521019        5.09302006976695
H           18.14200172530083        3.15613539020715        4.74520373172791
H           18.13120107532493       10.56250392157156        3.26242523124320
H           19.41388270769746       10.08282312347059        2.18423104909505
H           20.02527793258199        8.20065045454735        3.74140713095419
H           18.73333485327151        8.69863255648743        4.83160126805682
H           21.65447604918502       10.17006454413825        6.24249079023939
H           21.58320851407887        8.56011474290367        5.49090045174232
H           20.26533906308214        9.10757510167094        6.56425307696472
H           15.88348974182165        9.00821365680096        3.30566739709564
