53
 energy: -10.279402805751 gnorm: 0.000746119197 xtb: 6.6.1 (8d0f1dd)
C            1.23538352919456        0.19110624328560        1.08247537204219
C            2.46964240262000        0.04040423531336        0.20829986737712
C            3.20465276410232        1.36248995624116       -0.01147289068286
C            4.43883793682737        1.21889787369115       -0.90014440675973
C            5.17396327549369        2.53383926222684       -1.13003879155197
C            6.37168279091865        2.36503640274900       -2.02239065251451
O            6.66394210260230        1.27343798682590       -2.45306024231536
C            7.18688973441801        3.54431330567674       -2.37094293236153
C            8.29673906900168        3.36130212983447       -3.21222623776302
C            9.09109637661048        4.40887001410027       -3.58848649369930
C            8.78652215346060        5.69537440580509       -3.11948731108202
C            9.47238408519055        6.91950328398267       -3.40429225823774
C            8.93293859938291        8.02174683652530       -2.80875608572397
S            7.53200449854311        7.58212239269999       -1.83809311788808
C            7.68572616339514        5.88800400862463       -2.27521032938776
C            6.89127292015276        4.81560612198649       -1.90327870756076
C            9.60186034774623        9.32253998530642       -3.08864564417403
C            9.23589391947036       10.56478711975656       -2.56625384961276
C            9.96301551668299       11.68580403633153       -2.91131932937132
C           11.04858572852909       11.59087262420894       -3.76681522213333
C           11.42163997068089       10.36652094415362       -4.29224209530693
C           10.69740903421942        9.25445641994307       -3.95025198147612
P           10.85389152143365        7.51959838433650       -4.39751473065000
O           12.21004070457439        6.90860179755709       -3.96975160031281
C           10.52150098702894        7.25655619959654       -6.13561238782321
C           11.47938837063098        6.64536718543932       -6.90573306260540
C           11.23490852401410        6.42289477680163       -8.24924599732749
C           10.03131473714302        6.81520137305722       -8.80112536705622
C            9.07369671593029        7.42847573935458       -8.01720672990473
C            9.32089947058735        7.65070018665631       -6.67472361445599
H            0.71954908416607       -0.75978061700185        1.23109543169176
H            0.52063168192820        0.88656964400989        0.63922744706860
H            1.49489592644221        0.58149606153926        2.06799279063754
H            2.19354802096554       -0.38606849264327       -0.76481920139238
H            3.16030936250853       -0.68870898376501        0.65142467301458
H            3.49534453963062        1.78833743328381        0.95606099627892
H            2.51883465909557        2.09608236567352       -0.45136622970844
H            4.15572080860838        0.79156767643476       -1.86935845737311
H            5.13289704210975        0.48959338899051       -0.46595062854425
H            5.49253437527828        2.95372231466103       -0.17026453984498
H            4.49154985733334        3.26581018737630       -1.57450970463764
H            8.50858008964137        2.36341480229386       -3.55669390460086
H            9.94302486489072        4.26690003734746       -4.22986187074968
H            6.05046588794856        4.98552612821939       -1.25669131250400
H            8.39533160765929       10.62958181462697       -1.89846183094537
H            9.68550070575213       12.64550681126028       -2.50759761565526
H           11.60869403389819       12.47496306482585       -4.02311927343174
H           12.26721815891567       10.27265965887331       -4.95212225999696
H           12.40853369481192        6.34449672693683       -6.44681109773082
H           11.98112223073951        5.94328566432324       -8.86068946899455
H            9.83872797159326        6.64151167559452       -9.84708275931207
H            8.13461754412456        7.73186854187853       -8.44903048433910
H            8.58387390139305        8.12414286319171       -6.04563386861112
