53
 energy: -7.894377502373 gnorm: 0.002782609584 xtb: 6.6.1 (8d0f1dd)
C            2.04015129538115       -0.24479843369839        0.70987652006471
C            3.31685837470012       -0.86528154588848        0.16702883144079
C            3.95698200915465       -0.02732721709157       -0.93950928624880
C            5.24473779707372       -0.64313734369062       -1.48038609420363
C            5.89746990452069        0.18778250055586       -2.57918007834244
C            7.18835392888569       -0.41819602446523       -3.05652917556738
O            7.77699853583851       -1.20488828816066       -2.35226211050959
C            7.73205295605334       -0.02776429622754       -4.37232423857047
C            7.30223340450223        1.13483761839171       -5.04411854872833
C            7.69290015955743        1.60924693434311       -6.27994183632084
C            8.47601341284777        1.03172029918935       -7.26614543403812
C            9.08434214902182       -0.18213941199131       -7.47601939813749
S           10.41843217887679       -0.48042562031112       -6.58545538469918
C           10.60042022440680       -2.01867380988907       -5.75067652243136
C            9.57234361875879       -1.81086097092250       -4.79365409018750
C            8.73682537171788       -0.75410259103126       -4.91841591809745
P            7.05424037205809       -4.31578007057132       -0.04630297878090
O            6.20548679392015       -4.26131900289995       -1.24117515030154
C           10.84332037036231       -0.72382507865981       -1.79050459766205
C           11.29362682953695        0.12639892384111       -0.94074904925693
C           10.64064079221158        0.74303406250916        0.03103303931628
C            9.37980050962788        0.62791169780048        0.40634285884508
C            8.28938046752867       -0.20476883164298        0.06407088484798
C            7.30852270218220       -0.29647820672279        0.78376394254679
C            9.31278150399688       -3.56708671345773       -0.75102734599895
C            9.50455332959691       -4.41238299466571        0.27508495683951
C           10.10447571471997       -5.58681817953204        0.07905986961292
C           10.52604359466199       -5.94403607988506       -1.15226713945124
C           10.32565533020300       -5.07416927929374       -2.20915820676103
C            9.71765270478775       -3.89248992569404       -1.97775817475523
H            1.59488959201811       -0.84938376266004        1.50276126055792
H            1.29168920698369       -0.13102714601141       -0.07623671075982
H            2.22832147793817        0.74863857881239        1.12069997346976
H            3.11530210402609       -1.87506007786254       -0.21366934789402
H            4.04230205516664       -1.00913151138965        0.97810893057467
H            4.16262796239663        0.98240077352665       -0.56480460643849
H            3.24202076711064        0.11187717693900       -1.75906057543412
H            5.04768054566827       -1.65340963543422       -1.85697970053336
H            5.96060045885411       -0.78092438865666       -0.66080064604749
H            6.09246444981682        1.20011545930218       -2.21027977205655
H            5.20660284817674        0.29486242679277       -3.42188240543226
H            6.60394792751075        1.74867595740200       -4.49873709062724
H            7.29773896410667        2.57526146714798       -6.55543222981008
H           11.05249160263231        1.68747201632293       -8.74227082956026
H           12.11442203659352       -2.70702116097900       -3.31964488940199
H           11.77070867582874        3.92238335583410        4.03813242873334
H            7.43275120086086        3.12906315949274        4.17026855972226
H            5.94683658198012        0.57103708386523        1.58944981537403
H            6.71067626366573       -1.82800866342437        1.59207444402486
H            8.03079491912138        0.43496017750667        2.73829873505027
H           11.00879510414646       -6.89585139313296       -1.30013596735797
H           10.64705774823810       -5.32594037951806       -3.20621781869604
H            8.96672117121322       -2.96794163472887       -7.83422170315525
