83
 energy: -14.625845435215 gnorm: 0.000151067644 xtb: 6.6.1 (8d0f1dd)
C            0.56219803704921       -0.97683532562855       -1.95475657655703
C            2.08103283787419       -0.91323520241894       -1.94651769373104
C            2.61473758886732        0.51607390499694       -1.84311194260164
C            4.14105919477229        0.58280712613721       -1.82450831413918
C            4.67805490441392        2.00876042169895       -1.70791664073595
C            6.20143435199555        2.05820845632934       -1.64736699870291
C            6.79982987734974        3.46594212904091       -1.58325250233375
C            6.36200572740358        4.28874406482587       -0.35640870192254
C            5.19260118110811        5.23338170178495       -0.62746876773783
C            4.82811672640175        6.08844623372203        0.58460681636702
C            3.70049505691017        7.07893076956939        0.29787223570995
C            3.35569276661926        7.95839976083750        1.50012007985631
C            2.24470561560446        8.95265245462390        1.20295988100617
N            8.26466535231667        3.40133720365482       -1.62508385150843
C            8.91050323119963        4.17427692850050       -2.59920691547026
O            8.27507133108629        4.83612498929225       -3.40228410540846
C           10.37570857317767        4.16781122928041       -2.61512304689634
C           11.06274703513512        4.88920468531101       -3.56151623334985
C           12.45249691715509        4.87881746482797       -3.59296692019760
C           13.16068636047425        4.15516488202572       -2.67431062559082
C           12.50673906118288        3.41120771058772       -1.67295830881876
C           13.21915560973113        2.63726705917898       -0.69958718715939
C           14.69682963096372        2.63456382739972       -0.63992983376093
C           15.40707790458399        1.43954825231953       -0.64781897067575
C           16.79159555252568        1.40345798212431       -0.59103153784882
O           17.37385613082755        0.12450735682513       -0.63139883684161
C           18.74576344440209        0.09541175050720       -0.91487041933301
C           17.51333212267944        2.62148778133020       -0.48557145295471
O           18.90372296067375        2.54073601905076       -0.38912059414777
C           19.55671344110468        3.69476436531411        0.07060422186833
C           16.79942399511152        3.85000466584051       -0.47860942179754
O           17.51882725451695        5.05033697442767       -0.40808755244743
C           16.73966937638582        6.22180753056065       -0.33470951198897
C           15.41376942516620        3.82417548914307       -0.55237747237252
C           12.49600664508962        1.88395972350841        0.21042296962549
C           11.11174503870211        1.89366050795305        0.22291153878410
C           10.39888864687384        2.64668950797946       -0.68224071172230
C           11.09058907606901        3.41001519600131       -1.65408824271831
C            8.93648502512686        2.66186251638002       -0.64005189199217
O            8.33113167161517        2.05569607874068        0.22829721278144
H            0.19492129090622       -2.00265005495045       -2.02792423864013
H            0.14839408432156       -0.41919073654092       -2.79656521739597
H            0.14421865314467       -0.54294877301826       -1.04483841481280
H            2.48419342821410       -1.38582865162909       -2.85180492789632
H            2.47916325046311       -1.50921975432781       -1.11476611909417
H            2.21481339429299        0.99339600360866       -0.94042237841122
H            2.22949036799705        1.11534972238619       -2.67672917601445
H            4.54262433680210        0.11039337811590       -2.72889425966302
H            4.52447794353545       -0.02164706142351       -0.99370770891309
H            4.25578970826524        2.47990010779150       -0.81331577436649
H            4.32053107276260        2.61017339408458       -2.55196048357416
H            6.62350744478687        1.53604875264961       -2.51333679002507
H            6.55496406871312        1.49535041494096       -0.77705606094189
H            6.50093181624967        4.01277446619599       -2.49135017131767
H            7.22293708467805        4.87788548897171       -0.01874035901321
H            6.13882844451725        3.61521662080658        0.47786618630790
H            4.31461233188994        4.66925231989856       -0.95949173334690
H            5.44447501206486        5.88736243999179       -1.47113833919571
H            5.71554569131841        6.63350834542973        0.92795797617660
H            4.54917181096914        5.44039458489330        1.42396736645886
H            2.80673554376465        6.53554879731201       -0.03138280754082
H            3.97723395330644        7.71329248309662       -0.55281517124776
H            4.25821268651340        8.48911575007559        1.83076559343502
H            3.07576743861167        7.31984370438854        2.34819973503613
H            2.52083083555194        9.61950646282048        0.38440569766305
H            2.00898583509895        9.57553852061003        2.06836866435650
H            1.32710862217469        8.44208054423727        0.90600925370418
H           10.50028794832978        5.45663952665837       -4.28315574408177
H           12.97217850504526        5.44213185084885       -4.35055744756211
H           14.23460278529728        4.13577951503653       -2.72335802641143
H           14.87644017997774        0.50862788990757       -0.71980965789226
H           19.04835441665854       -0.93296857037908       -1.11483704920161
H           19.29309867067116        0.47938891607688       -0.05297525985697
H           18.94814807170091        0.71685232228045       -1.78846341549469
H           20.59869031571098        3.45610659146124        0.28567685562518
H           19.06552752101149        4.05198424158858        0.97672539567829
H           19.50840979229178        4.46099494999364       -0.70418903389469
H           17.40908158355032        7.07797221567922       -0.24655455365228
H           16.09638196183831        6.18664766957904        0.54530669521433
H           16.14609276939406        6.33178245846063       -1.24292275053700
H           14.85881776686607        4.74208334696066       -0.52662941234376
H           13.03141853573239        1.30038926208494        0.93926300976141
H           10.56601834474693        1.31630636969395        0.94953688036486
