52
 energy: -10.553244681090 gnorm: 0.000251968037 xtb: 6.6.1 (8d0f1dd)
C            1.07373925664551       -0.05353479857479        0.17598112905901
C            0.27623970549257        1.04166191650064       -0.11954219660904
C           -1.12443332966675        1.07655826241340       -0.05177243460288
C           -1.91437743256617       -0.05585500955319        0.29003785235898
C           -3.26320752660051        0.04369038775583        0.36001703558909
N           -3.89612451030038        1.24097807529489        0.10408691132969
C           -5.36364387330329        1.34304989763998        0.22375069209260
C           -5.98735093972090        2.09476181841044       -0.90841200709523
C           -5.82010271021610        1.65090543051541       -2.20968656001136
C           -6.36467297072346        2.35048983892499       -3.26726145100338
C           -7.08271623208880        3.50512310870864       -3.03367626513283
C           -7.25384368999844        3.95891465676175       -1.74213523676929
C           -6.70829666932943        3.25849543487547       -0.68565557087294
C           -3.15984288552999        2.35510968653620       -0.22997016171906
C           -1.81082830302366        2.29292130260966       -0.31809836606262
C            2.47581677883055       -0.07562732874448        0.13318041957333
C            3.25633669043306        1.04028785158926       -0.27763968470338
C            4.60868183562823        0.97073507773623       -0.27607870887693
N            5.25588744649017       -0.17877252278970        0.12276359618251
C            6.73072567364086       -0.21189671394610        0.17479850028265
C            7.30502871071510       -1.50155242988392       -0.31754584913541
C            7.12129627855826       -1.88398705719336       -1.63604903854923
C            7.61982082803273       -3.08594574010589       -2.09572295020000
C            8.30589090930465       -3.92134497665013       -1.23852867099220
C            8.49037919591324       -3.55396653859794        0.07836607436405
C            7.99119408489610       -2.35187364506003        0.53664404416392
C            4.52876113513985       -1.27661718964296        0.52486159271144
C            3.17554326010278       -1.24807728076674        0.53006471646761
H            0.58986575464712       -0.96010559475035        0.48966407925449
H            0.76254684831315        1.95685625675638       -0.40283809607665
H           -1.43885970131704       -0.99833372301325        0.49218999736682
H           -3.86554686501598       -0.80766685201943        0.62217880184700
H           -5.59302040597335        1.82600842653670        1.17726193462000
H           -5.78971842688373        0.33755077038497        0.27341057288588
H           -5.24758377381506        0.75623031618622       -2.38573752850541
H           -6.22591445799977        1.99643272124144       -4.27578546715389
H           -7.50714711690536        4.05327091496731       -3.85908090406293
H           -7.81198988530454        4.86246158354071       -1.55786267277602
H           -6.83531607666641        3.61510767860346        0.32228958820123
H           -3.68599527147544        3.27285572165133       -0.42219987403675
H           -1.24279870874427        3.16822040049761       -0.58206626339758
H            2.77106819570141        1.94601477215077       -0.59278068615082
H            5.20361652507861        1.81369641195405       -0.57918653341189
H            7.03777284037241       -0.02532297571137        1.20724189005239
H            7.12680056172244        0.61454743789900       -0.42126775007389
H            6.57401022238382       -1.23332245747102       -2.29663021631312
H            7.47040472060483       -3.37309615703914       -3.12380610459218
H            8.69481531642131       -4.86081489026594       -1.59633280904173
H            9.02288613672250       -4.20695139970199        0.75061555367889
H            8.12783859253937       -2.06705850621149        1.56596094144192
H            5.06511014411252       -2.15537853638015        0.83462515266494
H            2.61513411472369       -2.10996383457352        0.84876898174963
