79
 energy: -14.105339538473 gnorm: 0.000715607138 xtb: 6.6.1 (8d0f1dd)
C            1.55249841462233        0.28565779887045       -1.31169418243600
C            3.03565823618007        0.26144532398719       -0.97780482784838
C            3.30885133899895        0.44303612110906        0.51556273367181
C            4.79781799134075        0.42440943032620        0.85880711120551
C            5.06590250468300        0.60915040264526        2.35165351322350
C            6.55211735053786        0.58175263778473        2.69434301608801
C            6.88860086791928        0.89754778171280        4.15453479546964
C            6.29997921428271       -0.09320300505272        5.17428653804601
C            4.92197941992234        0.29154788417245        5.71042049657837
C            4.37694479608174       -0.72098978297989        6.71585735119935
C            2.99565668579066       -0.34690196635066        7.25138202535662
C            2.45006582094707       -1.36119870018008        8.25733331391305
C            1.06483523060176       -0.99806240769626        8.76817225598296
N            8.34493752427802        0.96456503575189        4.31644796530120
C            8.89491082184671        2.19645028263669        4.69450413050493
O            8.18973003623923        3.17341252087259        4.88062190095465
C           10.34984238691344        2.27172241112679        4.85715835685681
C           10.94776581176054        3.46061353194776        5.19621786340380
C           12.32870216980094        3.54813723632496        5.33587698792871
C           13.11420051266588        2.44488251805908        5.15163722388847
C           12.55156094294492        1.19448532718238        4.82588811901881
C           13.34792870956815        0.01718969514585        4.62725058769746
C           14.81090500073017        0.01607341275666        4.83925188899500
C           15.67126261169215       -0.53882084973142        3.88558904721231
C           17.02795476914687       -0.55762817208029        4.08114416492096
C           17.59890523689178       -0.02913649753497        5.24605319461644
N           18.98601550438752       -0.04898462636357        5.44708908638442
C           19.89578272031389       -0.62303950545094        4.45626713272447
C           19.59340582042554        0.51599237377038        6.65190044933384
C           16.73557923233107        0.51465894638762        6.20586770352490
C           15.37922219302119        0.53273746100948        6.00910046051368
C           12.71541629297512       -1.15011273539986        4.23024518682927
C           11.34254812012073       -1.21261441785737        4.05769152605771
C           10.54917179294948       -0.10921371630639        4.27049016054563
C           11.14715448943126        1.11625565753069        4.65551558674813
C            9.09910339063641       -0.19670241690599        4.09073680863669
O            8.57186030375451       -1.24487716759438        3.75719135313394
H            1.36929748475618        0.14724247419324       -2.37952760821607
H            1.09826930380849        1.23461080558914       -1.02125415839989
H            1.01590811333591       -0.50336577562902       -0.78181770504320
H            3.56271706996092        1.04343260673839       -1.54051979922963
H            3.48435893901340       -0.68206437860909       -1.31603127872732
H            2.79060745726474       -0.33985431154652        1.08266353043568
H            2.86386588454895        1.38474931948446        0.85937188208728
H            5.31694572502910        1.20620639061694        0.29136753481165
H            5.24350209622637       -0.51824719924312        0.51887912330794
H            4.54134166995607       -0.17516389409946        2.90854850906865
H            4.62712346703287        1.55551462306180        2.68965621683654
H            7.08901614694309        1.29122276411499        2.05427694494149
H            6.97493910823784       -0.39834805973332        2.44806160720477
H            6.51289685535221        1.90462448938622        4.39345624126440
H            6.99884782207509       -0.17148292030330        6.01563152260184
H            6.28225467870621       -1.09516053838448        4.73209858614503
H            4.20919044600344        0.40791055565560        4.88794559643966
H            4.97524042265655        1.28219485260902        6.17824670152496
H            5.08045000978237       -0.82636750798072        7.55058716624419
H            4.33550395611667       -1.71373470031234        6.25146074265669
H            2.29313801330231       -0.24266988113517        6.41551589936592
H            3.03622083770413        0.64659793027403        7.71439595141963
H            3.15149253681746       -1.45138940098169        9.09737282097335
H            2.43287985651748       -2.35681895068846        7.79432208848028
H            1.06810084525772       -0.02338318156458        9.25929479217073
H            0.68846075913209       -1.72767589232086        9.48857044839625
H            0.34456287384787       -0.94341264878000        7.94998514114368
H           10.32443862179684        4.32627962759293        5.34193073407937
H           12.77948080017303        4.49433757393301        5.58672765690863
H           14.18249643191289        2.53315725342746        5.23385869683321
H           15.25069060587938       -0.94171102206388        2.98027919292351
H           17.66639855536589       -0.98327823279855        3.32776330264542
H           19.64318342543113       -1.66702182720741        4.27842011130298
H           20.92863777068368       -0.57847402188195        4.79617827767498
H           19.82189065245552       -0.07372769628751        3.51917783596557
H           19.22899197631294       -0.00704578660826        7.53411932253927
H           19.34333798054615        1.57203210201427        6.73573943108133
H           20.67736252705666        0.42521568120810        6.62714488204024
H           17.14537397625407        0.91896890309688        7.11413322223965
H           14.72967186325030        0.92798055906392        6.77135793373567
H           13.31000225197718       -2.03443644598185        4.07896582858718
H           10.86941591479008       -2.13260206153377        3.75948404734091
