84
 energy: -15.299610328661 gnorm: 0.000377410125 xtb: 6.6.1 (8d0f1dd)
C            1.53976564012444       -0.52322888960773        2.06763721088649
C            2.84208314915952       -0.25878950896978        1.32903572140866
C            3.28923210143851       -1.44417845118461        0.47283324435903
C            4.59605750521699       -1.18233826728358       -0.27442147631736
C            5.03612126973493       -2.36161969108018       -1.14005013275144
C            6.34369997865657       -2.09212119064692       -1.88293532697456
C            6.81422166589674       -3.24250547524796       -2.79009467029671
C            6.30527718891097       -3.16387146165508       -4.23204757774748
C            4.78927861292728       -3.22278338617736       -4.39157626917748
C            4.35190736285375       -3.29573080900392       -5.85377668810564
C            2.83365066528917       -3.33577503949535       -6.02096041988343
C            2.39490163624433       -3.41408639635924       -7.48360872593739
C            0.88354813182055       -3.45196168272450       -7.64401851793855
N            8.27987187349650       -3.30000822554005       -2.80093190147315
C            8.88124135516563       -4.49112387504036       -2.37280679335436
O            8.21123577617436       -5.43417620678973       -1.98888576331396
C           10.34506261881223       -4.56504612227561       -2.40607978837589
C           10.99388553476654       -5.70363818421151       -1.99465218500453
C           12.38305550749383       -5.78114645873861       -2.01845882460927
C           13.12687512178315       -4.72197421590638       -2.45717348198149
C           12.50946879409097       -3.53510312650422       -2.89503181543611
C           13.26708281450881       -2.41350701641969       -3.37276005352416
C           14.74885117258599       -2.46306525630644       -3.43365764832828
C           15.45560444373598       -1.69577869622563       -2.51463128900520
C           16.82419091658275       -1.77093705114764       -2.39373844799383
C           17.57055524448119       -2.63324703720266       -3.18551137471468
O           18.96916711036686       -2.65857819699473       -3.04275164393646
C           19.69632423606831       -2.30100693489915       -4.21025597719673
C           16.88108702000441       -3.46721643519724       -4.13065751439314
C           17.59584404781749       -4.43119738406733       -4.85706323432922
C           16.97849183363255       -5.19700511586350       -5.79782322546069
C           15.62546592475899       -5.00957083097496       -6.06562958217269
C           14.87122224421041       -4.09442124904659       -5.37303963823103
C           13.45209914322323       -3.91156108748036       -5.79237760241477
C           15.47781999471123       -3.34080369583384       -4.31902706212805
C           12.58774072708954       -1.25845940487445       -3.73368055599023
C           11.20541203259095       -1.19074628612256       -3.69529368189339
C           10.45111973538167       -2.26463662633795       -3.27887718609756
C           11.09791752888955       -3.45368558076977       -2.86113052435596
C            8.99006891961517       -2.18246455448632       -3.26581956669222
O            8.41616132787041       -1.17783466409478       -3.65175344309106
H            1.23314232606341        0.32934246879475        2.67756556435831
H            1.63033729331893       -1.38533948987887        2.73079033855738
H            0.72730207902284       -0.73710938198867        1.37087363230048
H            3.63742110686024       -0.00729117067610        2.04301198328094
H            2.74140978269282        0.63018553399405        0.69246433934004
H            2.49967739994360       -1.69856315876107       -0.24455191563581
H            3.39786159821436       -2.33456805557068        1.10376554634534
H            5.38832482233640       -0.93578404184683        0.44257064312418
H            4.48964289159183       -0.28776278322037       -0.89980429089909
H            4.23842740745831       -2.61189527200619       -1.84638359853384
H            5.14822998729410       -3.25573528565336       -0.51488221052803
H            7.13393302279609       -1.89025706153150       -1.15012468345721
H            6.27372001405306       -1.17446612628274       -2.47680262349135
H            6.47828862737365       -4.19273617643937       -2.34672760174587
H            6.76525397072565       -3.97724975077891       -4.80487534507588
H            6.69360910921555       -2.24439106322390       -4.68353776124508
H            4.33151922730702       -2.34398372822868       -3.92397325594876
H            4.39409099295760       -4.08793700975664       -3.84604786688862
H            4.79835203154010       -4.17793671838528       -6.32814502314457
H            4.76107863845845       -2.43926755519752       -6.40308896976276
H            2.38789989409070       -2.45159501078522       -5.54940333694344
H            2.42484999850243       -4.18981039926574       -5.46750862192153
H            2.84684497393879       -4.29932466896620       -7.95032706850392
H            2.81214593070855       -2.55998496222593       -8.03325667886012
H            0.45385630991410       -4.31441176150599       -7.13153072840566
H            0.58314140167967       -3.51000431891907       -8.69242112139766
H            0.41903300499581       -2.56071748162762       -7.21853121483820
H           10.40318534685207       -6.53504368078785       -1.64982837327005
H           12.87227018916403       -6.68340709032786       -1.69021430984108
H           14.20038970966363       -4.78716205590221       -2.47692669281959
H           14.90040950290656       -1.04628832978120       -1.85943075014476
H           17.34482476209768       -1.16084343481470       -1.67729394831611
H           20.12543442661529       -1.30903218796592       -4.06659198479551
H           19.04439671275659       -2.28100189918348       -5.08416955766587
H           20.50126148679327       -3.01965566975691       -4.36679767231392
H           18.63987019374961       -4.57571437806685       -4.64193860018854
H           17.53797274845364       -5.93564540825481       -6.34823837404121
H           15.15731324402104       -5.59101484241478       -6.84167251284881
H           13.30129895241674       -4.23592993789814       -6.82271910145145
H           13.15684876290024       -2.86379706325839       -5.74383477807316
H           12.77739545113153       -4.49391219050537       -5.16517687928799
H           13.15680901546845       -0.40860608995731       -4.06867810297986
H           10.69295774375245       -0.29346154242772       -3.99738305804715
