81
 energy: -14.860665515755 gnorm: 0.000547878781 xtb: 6.6.1 (8d0f1dd)
C            1.46863975052524        0.64013903787172       -2.19442458079567
C            2.78831588298312        0.42536716903011       -1.47083871307590
C            3.31433098070130        1.69983741800233       -0.80983311308151
C            4.64846153077295        1.49723483928395       -0.09296771023884
C            5.16311822365590        2.77076215889933        0.57527972817612
C            6.50344065018418        2.57087078171406        1.28084076111612
C            7.02904782489494        3.81831706309084        2.01301490960775
C            6.60100963530427        3.91922233429838        3.47959293164425
C            5.09679084931939        4.03188430208447        3.70801659303293
C            4.73633831402478        4.28560587090923        5.17089505256914
C            3.23020424774909        4.40307764889170        5.40046568825083
C            2.86565761798783        4.66744234727816        6.86161587945236
C            1.36628799480188        4.79028271717990        7.08117998698560
N            8.49254725847068        3.86737561079375        1.93177708157168
C            9.06572672573525        4.98386924615983        1.30856253680747
O            8.37141482521782        5.86808037754977        0.83764390415315
C           10.52857092171847        5.05172661533954        1.24250188080232
C           11.14719289856314        6.12038768231724        0.64164598837331
C           12.53437972572861        6.18720723827203        0.56126440781986
C           13.30665295983514        5.19038096290041        1.08844832214433
C           12.72289534818990        4.08038430128727        1.72828802649276
C           13.50929975794350        3.01671899558169        2.28515611049702
C           14.98926392905700        3.06405426743861        2.27045325723058
C           15.65910619008510        4.10833836636710        2.89542163124017
C           17.03645851069719        4.18370221522152        2.92587735334485
C           17.83103421142282        3.21156954427133        2.32678166849742
O           19.21404434008829        3.21825493842686        2.31887303040572
C           19.80555825548488        4.30668961274419        2.98925096340344
C           17.17763847996407        2.11997575614600        1.66330707615026
C           17.93315335616327        1.12181312920382        1.02967247907187
C           17.32424201103013        0.08855676752927        0.37756995827176
C           15.93173604063502        0.01447494840223        0.32985893077638
C           15.17006701934036        0.96890414506213        0.93930356298374
C           15.76635990688148        2.04275207497470        1.63082203457194
C           12.85167566278300        1.93907456337691        2.86140628916643
C           11.47011570737513        1.87886526200550        2.92248516448464
C           10.69082795453769        2.88976868207634        2.40771544404455
C           11.31100372105636        4.00690952441633        1.79574840360973
C            9.23153690071977        2.81445687590515        2.49200981519545
O            8.68264445824221        1.86909126991315        3.03286833532194
H            1.10384296462551       -0.27580364989886       -2.66414883094072
H            1.56649819698809        1.39403439621074       -2.97748691250724
H            0.69450372493107        0.98831408599036       -1.50840978759333
H            3.54372359354724        0.04085492599158       -2.16876211302670
H            2.67955779987818       -0.35915543644649       -0.71032489732448
H            2.56957263532884        2.08089996356036       -0.10062748899843
H            3.41878129073007        2.48926769101791       -1.56390426140591
H            5.39676187529895        1.12517358530368       -0.80297896557137
H            4.54757164052439        0.70343363555738        0.65695676606637
H            4.41132644948641        3.14022653092043        1.27970116264237
H            5.25995802365759        3.56615053696947       -0.17362192576521
H            7.25369079694685        2.26527742132399        0.54200112239235
H            6.45229021085067        1.73594776673199        1.98789948347619
H            6.66901464305770        4.71066405052517        1.47765061811998
H            7.10480735246679        4.78354829467734        3.92719461010064
H            6.99860774971448        3.05027386652884        4.01520178282994
H            4.59897733326683        3.11636257813741        3.36967832526003
H            4.68952205150114        4.83718166546217        3.08518340684121
H            5.23417279668050        5.19832944030472        5.51967192975677
H            5.14420809084101        3.48185924993131        5.79559156691196
H            2.73259042618538        3.48848061545442        5.05595754290550
H            2.82367593151648        5.20280484217366        4.76960735049507
H            3.37330378258336        5.57961300765001        7.20203926520060
H            3.27533732687462        3.86442571201143        7.48845595905818
H            0.94657814285637        5.60585025776694        6.48973557130067
H            1.11889335001000        4.98246011341294        8.12737752431104
H            0.84770861820564        3.87729533452934        6.78351218409361
H           10.53402521315133        6.90258828364576        0.22781006890652
H           12.99965547251238        7.02892624805300        0.07516998832533
H           14.37774117682200        5.24137870788532        1.00659289419484
H           15.07439808563641        4.86852801229705        3.38482880065585
H           17.50160122457339        5.01184351926133        3.42825866051850
H           20.88945338250615        4.20601448884419        2.92416553876499
H           19.51329995322661        4.30004417712568        4.04001289293684
H           19.50901469326628        5.24239325808586        2.51381130595271
H           19.00642059875224        1.19370088314740        1.06582513833129
H           17.91801654591329       -0.66915714829341       -0.10680080923985
H           15.45839225660954       -0.79948448381346       -0.19421759736883
H           14.09724123031875        0.91475813008009        0.88541477694861
H           13.43962157738954        1.14558022966810        3.28952162281514
H           10.97855121088181        1.03866854996612        3.38239465955343
