75
 energy: -13.473376893265 gnorm: 0.000727511542 xtb: 6.6.1 (8d0f1dd)
C            1.27829737743757        1.41089348128902       -1.42581125169173
C            2.65838092454243        0.95124533267222       -0.98356244639996
C            3.16801965644987        1.70524844279147        0.24537727460641
C            4.55543896241291        1.24918939183238        0.69492876276054
C            5.06130305462597        2.00264917831139        1.92393123612147
C            6.44870863220909        1.54439367303785        2.37029481747301
C            6.99089364876753        2.27122075144214        3.61365229740292
C            6.65268887041888        1.59302973870343        4.94403492888919
C            5.16426039183931        1.50364562534357        5.26746415059547
C            4.89614997681632        0.97685476300008        6.67652832539860
C            3.40681808214056        0.87989887929749        7.00403216548879
C            3.13719408248379        0.35762160341602        8.41573428165462
C            1.65405545605137        0.26456354297072        8.73627962684639
N            8.44578765675661        2.42603563702401        3.50992897167301
C            9.23887596320034        1.27259012279810        3.42599912007353
O            8.74396809789411        0.15906569626228        3.41283421179786
C           10.69400637606238        1.45120035020634        3.36409375244601
C           11.52223303229850        0.35908654009475        3.29397662302425
C           12.90482483065359        0.51416377590140        3.26335332850702
C           13.46200816522020        1.76095958234926        3.29451872959311
C           12.65816933552660        2.91756697716779        3.34758399863656
C           13.21160302976675        4.24026380907607        3.39193056967567
C           14.67002944454473        4.47981017535936        3.32757600862016
C           15.30215097627600        5.28903431448303        4.27603900402392
C           16.65210143589426        5.51659788012004        4.22044603708602
C           17.44274254891831        4.95561777483499        3.21036462819179
O           18.80736930501440        5.23586989147366        3.23097644190699
C           19.54634076405487        4.65084806703474        2.18556215542082
C           16.80633048854558        4.15669060768667        2.25220961463392
C           15.45535556301204        3.92977044290819        2.30963643141609
C           12.34894226218886        5.31632667601101        3.50848334077503
C           10.97414619356769        5.14541683249808        3.55586938615148
C           10.41332494799198        3.89212481375203        3.49710804968371
C           11.25227458034990        2.75488812583001        3.39648830073755
C            8.95959801381822        3.72931923599141        3.55661879282723
O            8.22030852725019        4.69452857363608        3.64963543689735
H            0.92281710643165        0.86130742272130       -2.29999968936029
H            1.27937225198919        2.47177581115171       -1.68194233138249
H            0.54282029799156        1.27295270307575       -0.63132235733164
H            3.37757182623381        1.06936458080920       -1.80502233956478
H            2.64771735607565       -0.12582436490253       -0.76953382492868
H            2.45595558935628        1.58662710906669        1.07120978021706
H            3.18415263037170        2.78189700297683        0.03664553681345
H            5.26859146236846        1.36872418169242       -0.12962848358995
H            4.53988876644816        0.17270684817628        0.90426177542079
H            4.34079256096207        1.89211223164958        2.74036943435346
H            5.08276793727499        3.07848547505142        1.71199550035427
H            7.15694074041178        1.69964386818263        1.54795819975893
H            6.46417004251241        0.46434857984034        2.55125086558612
H            6.58066602844330        3.29304841082034        3.62344515017143
H            7.16884697313810        2.13296506565128        5.74618372666710
H            7.09858609432191        0.59235733232578        4.94396969370100
H            4.66318644532968        0.85549982434618        4.53995913618314
H            4.70200573977613        2.49103276029755        5.15093654162970
H            5.39344097236152        1.62147327619089        7.41119309106702
H            5.36561887836135       -0.00682118903440        6.79713024389678
H            2.90976350563241        0.23335191907510        6.27080268399504
H            2.93817759560622        1.86359900829671        6.87968879904097
H            3.64112269849862        1.00651198785393        9.14417815627858
H            3.61222200378642       -0.62503582227992        8.53541420541752
H            1.17135675006459        1.24035806047794        8.65958760799125
H            1.47487290895478       -0.11162469989822        9.74571924569174
H            1.14140366059931       -0.40309954589279        8.04172808203433
H           11.07890839720659       -0.62177220606156        3.27385200978862
H           13.53740432731203       -0.35721388954398        3.22032597243645
H           14.53183812123617        1.86667616042121        3.29842263195587
H           14.71250174012481        5.72218829593545        5.06556876588109
H           17.13560592851890        6.13394660797802        4.95666015771671
H           20.59271900433509        4.93629144417958        2.29866458970208
H           19.18320649133280        5.01526319857207        1.22380396430148
H           19.46883867029166        3.56415654504442        2.23814194274648
H           17.38231567087312        3.71726598105255        1.45854416184465
H           14.97625438105142        3.33506297131398        1.55075185611157
H           12.76253086268686        6.30939581732163        3.54467165472977
H           10.31858692670102        5.99544092944227        3.63990675974371
