83
 energy: -14.550911326505 gnorm: 0.000430866809 xtb: 6.6.1 (8d0f1dd)
C            1.60283425765191       -1.73984966357285       -0.62631845517615
C            2.93845471902497       -1.08126751541258       -0.31931597333317
C            3.39027800306598       -0.11869852659263       -1.41811983849913
C            4.72249644622564        0.56219538645906       -1.10696620002865
C            5.17518031178083        1.51714891590582       -2.21006154999350
C            6.49250982398314        2.21853400322273       -1.88214001610770
C            6.98143340829579        3.19832702967273       -2.96245004953448
C            6.47695521309691        4.63502876369112       -2.79605916438822
C            4.96405716759252        4.81079111728007       -2.88128062100590
C            4.53818297444815        6.27804852805398       -2.85835595409599
C            3.02274004928571        6.46034618369929       -2.92924256047435
C            2.59504375758821        7.92802350169735       -2.89610163520317
C            1.08674465279520        8.10389142320382       -2.97079214046596
N            8.44809687924391        3.20398059944612       -2.99985134642770
C            9.06444813878692        2.78685948712934       -4.18767861874319
O            8.40629898486031        2.41359510929147       -5.14291716850100
C           10.53053899623058        2.81788258210610       -4.24246395176771
C           11.19078361541914        2.41168223818661       -5.37441697431393
C           12.58209507695374        2.43731217703097       -5.43704763467899
C           13.31415978787783        2.87739486020242       -4.37190714345059
C           12.68486693291493        3.31561684601699       -3.18842039956890
C           13.42388505512334        3.78311912124988       -2.05473339147199
C           14.90268115139837        3.88459350611125       -2.08320725589944
C           15.68075046912538        3.20870814951771       -1.14368110367720
C           17.05552349964024        3.30768196286864       -1.16776655553783
C           17.68240720328009        4.08528122611316       -2.11993824746011
Si          19.53906248482910        4.17818332362637       -2.13941309950821
C           20.17304220089221        4.43695597876250       -0.39672617212714
C           20.21879546673172        2.57092992336640       -2.81478321004449
C           20.12330424006138        5.59711957419314       -3.21373220413450
C           16.92593853291906        4.76482185857194       -3.05288956009785
C           15.55092806825960        4.67086872131379       -3.03591750195370
C           12.73413273720622        4.14955233867266       -0.91601665833494
C           11.34777124436084        4.09610233318294       -0.85712410271981
C           10.60932958589525        3.67228773691844       -1.93447985995622
C           11.27185397137965        3.27067836578152       -3.12113564369098
C            9.14498026512710        3.63946111817065       -1.86238096429882
O            8.56124277266275        3.98513062648383       -0.84970828667923
H            1.29198276722923       -2.42648238889201        0.16418672340114
H            1.64798941554871       -2.30916991292427       -1.55645852888088
H            0.81329442915838       -0.99528448686033       -0.74324146165869
H            3.71160425243164       -1.84616574236318       -0.16729213677433
H            2.88281878893771       -0.54115160273402        0.63520976657520
H            2.61754928392561        0.64260706665073       -1.58084448626323
H            3.46485928694673       -0.65612173713174       -2.37132416580094
H            5.49530995945297       -0.19706029620161       -0.93652905370812
H            4.64441399385950        1.10724498980830       -0.15840414690897
H            4.38647691958914        2.25179047784895       -2.39938576501603
H            5.27822960128261        0.96725945162896       -3.15348878899226
H            7.27056740109454        1.46068108828541       -1.73172243931198
H            6.42697730686907        2.74573009426752       -0.92428298730656
H            6.65641291607406        2.82097142819057       -3.94440215243038
H            6.96047551918056        5.25978083329148       -3.55589831421377
H            6.84439508415664        5.01960261414765       -1.83836903584181
H            4.48091074541185        4.28619650903109       -2.04959497861995
H            4.58720673178923        4.33196552831474       -3.79296937286889
H            5.01332145488124        6.81311977400076       -3.68947557026051
H            4.92544057617088        6.75871192227572       -1.95174677994856
H            2.54758447820536        5.91947487027584       -2.10173546925651
H            2.63681110156277        5.98418842352805       -3.83885024670628
H            3.07976563864642        8.46533206776054       -3.72210218838129
H            2.98597002220454        8.39864875159081       -1.98414466053985
H            0.68408843893850        7.67316847374636       -3.88932916468179
H            0.79423891043570        9.15594686382753       -2.94584888395648
H            0.58941635821926        7.60517363695446       -2.13693326048183
H           10.60935477721835        2.06913251224641       -6.21329225982612
H           13.08054297146244        2.10705228925008       -6.33363445511871
H           14.38822568688109        2.88400372808930       -4.42451119142280
H           15.19184001228904        2.60019603324661       -0.40249111058429
H           17.65219568830191        2.77559609980110       -0.44598049023355
H           19.92931842219095        3.58086521855289        0.22580238228327
H           19.71960869144776        5.32485876676292        0.03467332726283
H           21.25188271063185        4.56412165212381       -0.40831749771949
H           19.89840456439387        1.73985337316183       -2.19289978153583
H           21.30464173940852        2.60070056060361       -2.82992985942382
H           19.85705989033347        2.41092303367513       -3.82653759643389
H           19.67442867026381        6.52826848445892       -2.87961167222943
H           19.84778252786248        5.42444496983600       -4.25021195907628
H           21.20409187860585        5.68772143989445       -3.15121236597805
H           17.41880822359094        5.37155645539295       -3.79331322661769
H           14.95986850507606        5.21463833952730       -3.75279637383250
H           13.29127981085898        4.49911579222866       -0.06385272106301
H           10.82524570098047        4.39458364118679        0.03553561373170
