71
 energy: -13.994474785807 gnorm: 0.000640673457 xtb: 6.6.1 (8d0f1dd)
C            1.20922632344283        2.09225886009656       -0.51277001650231
C            2.59517525274347        1.47576589062271       -0.39351229239107
C            3.11205656361125        1.45343998293749        1.04632690260844
C            4.50376632244235        0.83347361335545        1.17375156262951
C            5.01308530064588        0.80062801861744        2.61434326103199
C            6.39785830892945        0.16526505268862        2.73833207433417
C            6.93592691729281        0.07545374056663        4.17763323559296
C            6.57094940558963       -1.21936700989613        4.91089313291397
C            5.07775153551995       -1.45053032884087        5.12671165548819
C            4.78893470793271       -2.67342658833081        5.99716294902784
C            3.29510235838511       -2.90776397623847        6.22282092381535
C            3.00659687063349       -4.13043802373171        7.09618229299173
C            1.51941362794423       -4.35043107164429        7.33084054187921
N            8.39600980525882        0.24026600916647        4.18358911974348
C            9.17963641025874       -0.69058064612721        3.48001625948786
O            8.68063580998468       -1.61130047042493        2.85414006183825
C           10.63878546207327       -0.52284915676802        3.52722372917190
C           11.45872350650625       -1.40014964199658        2.86121423162367
C           12.84514275122489       -1.26502589638608        2.91338360473992
C           13.41408692241092       -0.25019324821466        3.62914506855440
C           12.61823804650791        0.68558109312758        4.32343821874142
C           13.18705511447251        1.75448719384386        5.08960158774666
C           14.65639771896794        1.95105921240602        5.17652782477969
C           15.30498671188274        1.92395396250372        6.41240145367557
C           16.66891492156293        2.10562356135123        6.49781271020690
C           17.41211313939960        2.32260554257992        5.35301730463654
C           16.78661264549518        2.36054053573605        4.12120361873765
C           15.42290191228752        2.17909007683667        4.03211130776495
C           12.33964555740092        2.60774532321343        5.76960975858361
C           10.95891888170807        2.45951293768636        5.71306420841888
C           10.38195188609748        1.44971411037697        4.98086460867737
C           11.20960472720958        0.54055342222576        4.27442365960601
C            8.92263926773223        1.30318179386394        4.93677694264112
O            8.19559519668132        2.07711879717241        5.53883003854538
H            0.85020368784554        2.10324503763088       -1.54603871230161
H            1.20248677967907        3.12408635892360       -0.15230663444310
H            0.47776696293561        1.54002913420140        0.08278279855577
H            3.30881890742440        2.02160847685071       -1.02681536142604
H            2.58974768279305        0.45164389181330       -0.79298284060515
H            2.40513116066257        0.90555314930003        1.68297296480678
H            3.12464372003208        2.47412659452542        1.45020051467324
H            5.21390028706093        1.38405797132121        0.54335901605833
H            4.49194554728200       -0.18522705599854        0.76496588263863
H            4.28994792260233        0.26981561056393        3.24266937113317
H            5.03956549919473        1.82026406953863        3.01978145278404
H            7.11109217142136        0.74656017323859        2.14097206591803
H            6.40816319856693       -0.83458752353145        2.29013070347042
H            6.53417860076864        0.92701309664276        4.74745217793404
H            7.08390429677967       -1.22258901560464        5.88020316052045
H            7.00405144979573       -2.06144498318272        4.35957814635321
H            4.57519647248738       -1.57234706614012        4.15995553434627
H            4.62831711143482       -0.55945341761145        5.58286316524229
H            5.29514709476241       -2.56474641189057        6.96497128648016
H            5.23817818430578       -3.56478244785043        5.54059103555183
H            2.78794687443023       -3.01665171244362        5.25532683735392
H            2.84721610928366       -2.01510182767472        6.67851481555466
H            3.52922485994377       -4.02072852430356        8.05701471882024
H            3.45318988353905       -5.02139712287710        6.63240335789379
H            1.06392482965981       -3.48569390073095        7.82012789806737
H            1.32586418690153       -5.22351855759818        7.96094817091948
H            0.98797721963102       -4.50249684897289        6.38792473322873
H           11.00876059445160       -2.20223084475509        2.30141159203353
H           13.46941864445430       -1.97005190668043        2.38769946300816
H           14.48535705506632       -0.16224739443599        3.67702884698693
H           14.72312051843382        1.74992774136210        7.30214693186694
H           17.15657760385315        2.07712258904577        7.45983145238538
H           18.47955688521326        2.46388414554389        5.42084159471681
H           17.36585110941781        2.53346430640342        3.22754032251763
H           14.93141482574760        2.21888496228244        3.07431039366625
H           12.76742227968757        3.40986420538283        6.34719414008078
H           10.31621989220574        3.13865237532383        6.24681746183635
