42
 energy: -8.956858906819 gnorm: 0.000927350020 xtb: 6.6.1 (8d0f1dd)
C            1.15890488770264       -0.09836347100198       -0.31900833929869
C            0.32952132252523       -0.89795399719345        0.37829547869115
C           -1.11152076781051       -0.89456652990018        0.29794797402354
C           -1.82342239934051       -0.05078503924631       -0.59095589917064
C           -3.17483674491832       -0.07765197538147       -0.63443176744952
N           -3.90728531748887       -0.92395480965817        0.18268933736488
C           -5.29182869785182       -0.94812169801811        0.13338636588546
C           -6.01149270397127       -1.77055662687744        0.92997210465349
C           -5.36580999014414       -2.63967309942182        1.84477515060257
C           -6.09520176541341       -3.53344718358011        2.71230233840812
C           -7.43438452818213       -3.67026555237439        2.75221447060829
C           -8.12687297846950       -4.57716300164371        3.63585138000940
C           -7.56261817273235       -5.45279289013375        4.59790985472110
C           -8.59129870763702       -6.12088550606174        5.20225812213030
N           -9.77414040269754       -5.69182138859422        4.65048715510619
C           -9.50413300719863       -4.75534544509011        3.69943194394506
C           -3.98563805389575       -2.61713254103321        1.89225620595494
C           -3.24091003349237       -1.76553777757792        1.06693882953847
C           -1.84161332187676       -1.73953984669216        1.11070633540176
C            2.59706422250205       -0.13676091429585       -0.20505528059958
C            3.37998174071190       -1.00392474905924        0.59821229418440
C            4.69341647243426       -0.68441562793534        0.39284464283324
N            4.75485700917378        0.35033379907677       -0.50872683092474
C            3.48909394589837        0.69016860149018       -0.87858584847339
H            0.74900608071505        0.62195232266459       -1.00171641474902
H            0.76810504007111       -1.60085723152028        1.06354353682303
H           -1.28338559742719        0.61273670690043       -1.24193243916389
H           -3.71458703261091        0.56148621717465       -1.31045535814413
H           -5.78270308396986       -0.28919188399175       -0.56064065334549
H           -7.08476779632529       -1.76279305303096        0.87023934623288
H           -5.50780589539562       -4.13921042723434        3.37892023326988
H           -8.04524700986522       -3.08146037178075        2.09377302146376
H           -6.51427501656789       -5.56889491027055        4.81628611991927
H           -8.50250265906709       -6.86208955950853        5.98146974236112
H          -10.70410823714707       -6.02948638791504        4.91395958498523
H          -10.23803322799647       -4.24488668589079        3.09705927086694
H           -3.46849946141310       -3.26634983668505        2.57564945171251
H           -1.32805194952254       -2.39066235515402        1.79496250427135
H            3.00885187985360       -1.77602994894501        1.25107891456253
H            5.54617245868946       -1.15761992153761        0.85476142571976
H            5.61845408882322        0.78574102965077       -0.84468811372036
H            3.22845541132889        1.46831356727835       -1.57728619120998
