96
 energy: -18.440661206706 gnorm: 0.000713097106 xtb: 6.6.1 (8d0f1dd)
C            1.02625475831532        0.79114708176110        0.26378270251468
C            2.53535889883893        0.72136333698145        0.09284907373025
C            2.95993964573213       -0.22348673162209       -1.03180935006701
C            4.47599557257874       -0.30182004349970       -1.20857973828471
C            4.89396524614902       -1.25383013871216       -2.32844397497068
C            6.40930402361800       -1.34869155798155       -2.49170329432783
C            6.90648006869508       -2.27397651580692       -3.63452637634591
C            6.48279125325741       -1.74137875186241       -5.02534645602836
C            7.01099454600689       -2.58296032531676       -6.18529694344875
C            6.56791843095021       -2.06200302832484       -7.55084986274198
C            7.09906806309421       -2.90502890866713       -8.70943515657943
C            6.65453673757888       -2.38904204843740      -10.07843521525426
C            7.18447952707488       -3.23391239390122      -11.22595689460438
C            8.43094809138619       -2.40209872255474       -3.53586419685625
C            9.41571901755107       -1.44678513971129       -3.68639696774567
C           10.73964563677062       -1.82034323708592       -3.54191158322884
C           11.07720373408238       -3.13246030260863       -3.24984345290332
C           10.09894353197668       -4.09400919152263       -3.09639680863674
C            8.76843646141912       -3.72420824631942       -3.23744054765627
C            7.54483865612925       -4.53214156173510       -3.16853624110689
C            7.37973800670633       -5.89329887757933       -2.94896912944920
C            6.11285104881716       -6.43072572602002       -3.00957328091583
C            4.99915359479030       -5.63767913352492       -3.30993653483123
C            3.64638982900783       -6.23216535865820       -3.40047451263909
C            3.16628115483420       -7.07971146360946       -2.40279777857051
C            1.90156355147443       -7.61378133942488       -2.47999992322957
C            1.07014600513210       -7.32994604428476       -3.56281839936578
C           -0.29180802216764       -7.90057512615947       -3.64629989257227
C           -0.79386412326956       -8.41466472770590       -4.82817545299922
C           -2.07322685864373       -8.94477281872559       -4.87612813408028
C           -2.59210294875965       -9.50936127920528       -6.14112371969148
C           -1.72664734065528      -10.13661636848139       -7.03174037701771
C           -2.21414159799070      -10.66523115536957       -8.19720471391469
C           -3.56165220459012      -10.55393664929407       -8.44027667520030
C           -4.34871122213898       -9.92410890821300       -7.50755501961138
N           -3.90431756666170       -9.40447157134790       -6.37644813948226
N           -2.88327076979988       -8.96146978253592       -3.81119504501612
C           -2.41484475380371       -8.45514989732175       -2.66450487307612
C           -3.31774497685543       -8.46670089064779       -1.49314521350741
C           -3.21976678030009       -7.47334629137299       -0.52388878691740
C           -4.06446838685457       -7.48747809796517        0.55401171725685
C           -4.99171756663728       -8.49809630037567        0.63240870864544
C           -5.02889155312594       -9.43553082041669       -0.37031210351408
N           -4.22588827903744       -9.44565573649520       -1.41994774322906
C           -1.13433437317559       -7.93745756010531       -2.54980309481883
C            1.55300786217566       -6.48775019349474       -4.56356281901054
C            2.81349643648597       -5.94545174850605       -4.48144917122374
C            5.17996386307698       -4.27056624588282       -3.53053536542649
C            6.43904810847628       -3.71974660435582       -3.43471062464700
H            0.73491079326064        1.47105384700115        1.06761434042871
H            0.60960646092127       -0.19055167967605        0.49698132598708
H            0.54105511987538        1.13700934625229       -0.65089288864309
H            3.00778379860259        0.40277232302896        1.03159696921396
H            2.94074420111997        1.72301916787049       -0.10276841906680
H            2.49533200642196        0.09252477401195       -1.97383037669657
H            2.55968295616708       -1.22665104734489       -0.84031429640866
H            4.94100888080655       -0.61565003458877       -0.26601532040148
H            4.87786208273969        0.69950537512494       -1.40547030794363
H            4.43208586084421       -0.93407137817914       -3.26933659361648
H            4.48102524333940       -2.24763980431465       -2.12334302451111
H            6.85072864231131       -1.69950356070429       -1.55287245070270
H            6.82340093520854       -0.34772776514831       -2.65007822472718
H            6.82661943209266       -0.70761587319999       -5.13125884386366
H            5.39101893017667       -1.69855995592962       -5.07717055771392
H            6.68412034663193       -3.62286616549067       -6.06445022064517
H            8.10607769955073       -2.62362621625289       -6.14326476776591
H            6.89318588443816       -1.02148178161102       -7.67146602211006
H            5.47246056868650       -2.02535802779378       -7.59295474537062
H            6.77600463478522       -3.94588742767349       -8.58533017653870
H            8.19456286500468       -2.94047093639660       -8.66683559808739
H            6.97847811411064       -1.34626592917389      -10.19540578949994
H            5.55755975630591       -2.35064452215982      -10.11236793258696
H            8.27591110230372       -3.25504124065657      -11.22935003831746
H            6.86031775029228       -2.85600509676262      -12.19826762625892
H            6.84326294586965       -4.26772292455469      -11.14530347640046
H            9.14649245215455       -0.43002772310207       -3.91375103384866
H           11.51654346343986       -1.08252154841421       -3.65865181658358
H           12.11437182318264       -3.40568669236082       -3.14372792578900
H           10.35157161975634       -5.11641933031555       -2.87677665307176
H            8.23666624634603       -6.51067066289061       -2.74436853909893
H            5.96888155992731       -7.48520238267391       -2.84877806713490
H            3.79654723477227       -7.30079618783982       -1.55855623028796
H            1.54402326667489       -8.26972841142537       -1.70501055746666
H           -0.18598146355998       -8.39332103890489       -5.71393115365883
H           -0.68219588340554      -10.22820635543914       -6.78917757910440
H           -1.56207724663705      -11.16000966873643       -8.89871133818106
H           -3.99279626312837      -10.95826176195185       -9.34153984587886
H           -5.40912695713781       -9.83462038582464       -7.68663136225514
H           -2.50046892139802       -6.68124012682529       -0.63816221274117
H           -4.00784688747660       -6.72563569447792        1.31451845345174
H           -5.67784402459322       -8.55215251891429        1.46179198764826
H           -5.75739580592817      -10.23027250716851       -0.32234099845975
H           -0.78691880237606       -7.56124349823026       -1.60530284691607
H            0.91691074415068       -6.25175049329992       -5.39928376026187
H            3.17451975163942       -5.29568656466817       -5.26023265082785
H            4.33657504388416       -3.65535676817572       -3.78462342466417
