137
 energy: -24.802253327559 gnorm: 0.000556904734 xtb: 6.6.1 (8d0f1dd)
C           -0.04116608867803       -0.13212313126024       -1.91299520140882
C            1.17771940414777        0.08342390627575       -1.03026846498899
C            2.03134987124195        1.27077012741867       -1.47769874073287
C            3.25562274019617        1.49256485140423       -0.59055873237503
C            4.10807117297541        2.68173278918111       -1.03264141605568
C            5.31971172585679        2.90042910970951       -0.12994788379785
C            6.26287267205781        4.06653856359074       -0.52855720273334
C            6.91603472844793        3.82489208954346       -1.91144664354736
C            7.93985007861631        4.89036410969504       -2.29824123746308
C            8.57539500271340        4.63682624136779       -3.66401979950941
C            9.60335179028165        5.69961295186367       -4.05027423779826
C           10.23532329026101        5.45048720641448       -5.42037965081606
C           11.25533665626619        6.51205534785979       -5.80032532717054
C            5.54381181538431        5.42041471761151       -0.48141892288074
C            4.55763957477422        5.94402852973940       -1.29436477937710
C            4.08907604703980        7.22191851018292       -1.04750401741955
C            4.60611467811346        7.97765812456025       -0.00777718216166
C            5.60756104799264        7.47385086016121        0.79657832448958
C            6.07914440319537        6.19094707255664        0.55477003982410
C            7.17071916801391        5.45075651930727        1.19879775241577
C            8.00617749800757        5.81109519889531        2.24704029437739
C            8.98737652284161        4.93146140133943        2.64855947002880
C            9.16233552769404        3.69589831434821        2.01567384030363
C           10.22309076699941        2.76624593827181        2.46780947054707
C           11.14937089852053        2.24187074879968        1.56166537404025
C           12.14769646752996        1.38651818156917        1.98302911481644
C           12.21897595256752        1.04547944890760        3.31163062630759
C           11.30934606886279        1.53648420790097        4.23312803240904
C           10.31097743201438        2.40366993112454        3.80968433301864
C           11.53230811324504        1.04723764462852        5.60255588438904
C           10.76861640375958        1.33728844866212        6.72476340471763
C           11.09927845317770        0.78492030739109        7.96011309861722
C           10.25463065726902        1.06504914422766        9.14258725755196
C           10.82337082935685        1.40063586682386       10.37606793861891
C           10.03984935390309        1.67934176245667       11.47538879652208
C            8.65814423858955        1.62361035499219       11.34843405827167
C            8.07778295586647        1.28280508743243       10.12588146097475
C            8.86455174911832        1.00650796225826        9.03060747580336
C            6.55175991884616        1.28484408340341       10.26106761384161
C            5.97554280456956       -0.11837827572883        9.94670956660853
C            6.60863379451395       -1.23705081003310       10.77202802696020
C            6.02470870251326       -2.61327007313551       10.45878560867049
C            6.65950875122001       -3.73102129533661       11.28525845345258
C            6.06853008372196       -5.10869640338338       10.98337927963636
C            6.69821600068694       -6.21431486169617       11.81572781838029
C            5.97373038250054        2.36736137856985        9.31106313422749
C            4.45661112815108        2.53970404055425        9.33450870096254
C            3.96460202824124        3.55270505594098        8.30080507293231
C            2.44334024847717        3.69709288653412        8.28384177832632
C            1.94860611776154        4.69147558054429        7.23265332056566
C            0.43346405370711        4.81437892462104        7.20576541344799
C            6.35030168852831        1.64466574982009       11.73809548265489
C            5.19716138408151        1.73260867597724       12.49296171108892
C            5.29306322273547        2.05593792749859       13.83446675981358
C            6.52723994259799        2.27881813441100       14.42322058298911
C            7.68759300861120        2.17181283108692       13.68443788857874
C            7.59706566525598        1.84886643484917       12.33761538185204
C           12.21458037557665       -0.05318280169502        8.04911209087243
C           12.97207205128296       -0.34724926356661        6.93266414170635
C           12.62024429382636        0.19918883615163        5.72248162460211
S           13.41567557257519       -0.03828834826400        4.11935027764634
O           13.17858980867617       -1.45720529192936        3.66110061737386
O           14.76769593060788        0.63283644320083        4.12939995615541
C            8.31835005131199        3.34639643569376        0.96042586679249
C            7.32973169253565        4.21868162067777        0.56119139738703
H           -0.64163830927592       -0.98305118840904       -1.58333588772213
H            0.24925072945857       -0.31724222836794       -2.94886632724116
H           -0.68908996254123        0.74642905950555       -1.91303291127349
H            1.79781806395345       -0.82275753069911       -1.01384775219624
H            0.86749592034929        0.23289912265097        0.01252680997537
H            1.41831926340431        2.18020691087481       -1.49362691866266
H            2.35064561310081        1.12487613190098       -2.51685186386286
H            3.87001304067172        0.58406973844565       -0.57608381495144
H            2.93571495730297        1.63598185424221        0.44879851313767
H            3.48679857291203        3.58391103388723       -1.04629203323913
H            4.43094937304659        2.53355159170221       -2.06930739227815
H            5.90967994536776        1.97924798920938       -0.08466064059799
H            4.97801039354202        3.07478132966904        0.89582761791161
H            6.13482189534839        3.77747755283347       -2.67563194427050
H            7.39259984368315        2.83944343634553       -1.91134871126924
H            8.72289660676552        4.94527919335057       -1.53243313388419
H            7.46485278758632        5.87877215767219       -2.28918037147985
H            7.79233494466590        4.58511320084345       -4.43028966547809
H            9.04769936221837        3.64691982615025       -3.67199751251947
H           10.38820758367609        5.74779713187599       -3.28556991486383
H            9.13184956820004        6.68984336023612       -4.03659518913584
H            9.44415655734491        5.39749722292915       -6.18011182674408
H           10.70284496315140        4.45687452440618       -5.42856449907847
H           10.80004258562266        7.50367025971084       -5.83251518467813
H           11.69935994329108        6.32308664873651       -6.78033253435390
H           12.06927049708199        6.55526793070088       -5.07423719594446
H            4.17946447195368        5.37062393224652       -2.12233249276210
H            3.31743574798337        7.63629054216764       -1.67557573869636
H            4.23139108479753        8.97290992728758        0.16756801693657
H            6.03065831567174        8.05977746268762        1.59351229049154
H            7.88181943647266        6.76454500808816        2.72925538764928
H            9.64625911832855        5.19436806696373        3.45842890740141
H           11.08174074012057        2.52498506695780        0.52539778054768
H           12.86904677769759        0.98508175316675        1.29162894855111
H            9.59744672148662        2.78986547348387        4.51381222046004
H            9.91909129147481        1.98953694030051        6.64167350037623
H           11.89572246309831        1.45275469814569       10.45470039620478
H           10.48067479918433        1.93806308654324       12.42183208463652
H            8.40950795138124        0.73431447233886        8.09563525083190
H            6.10868067015151       -0.32648486433647        8.88032324212796
H            4.89516712496933       -0.11102572374232       10.11729764944947
H            6.48867719151750       -1.01967245355845       11.84023214707437
H            7.69250778631459       -1.25081434834919       10.60575487357776
H            6.14504505982045       -2.83006599926243        9.39035706786647
H            4.94091369340981       -2.59998947861355       10.62683319774299
H            6.54659161547676       -3.50808137658219       12.35326507403829
H            7.74237316926098       -3.74809976510665       11.11143031974646
H            6.18571310882617       -5.32702688976788        9.91356447207157
H            4.98339625414816       -5.08179321505650       11.14981841555725
H            7.77285307607385       -6.28054955776740       11.63590614698660
H            6.26712592177573       -7.19291280878169       11.59266792021369
H            6.56170853428023       -6.03127638506964       12.88321024387879
H            6.29122222995017        2.13029643582775        8.29029906606902
H            6.45310221057993        3.32308453268884        9.54731376256310
H            4.12988982051258        2.85206142845900       10.33225687586682
H            3.96641008712397        1.57630872635017        9.15487313327857
H            4.31581182744996        3.25952213352862        7.30386028143385
H            4.42782383472683        4.52875861005537        8.48984941002050
H            2.09015258019489        4.00182667084545        9.27654014433151
H            1.98345388043574        2.71704772499141        8.10711928046188
H            2.32032574433620        4.38878716692909        6.24459663448388
H            2.40518333676116        5.67278004702448        7.41832012618707
H           -0.03662754894174        3.85380249892911        6.98651017644695
H            0.09235620330069        5.52662122061448        6.45100156314104
H            0.04706710853268        5.14822080371696        8.17057717622851
H            4.24140729392574        1.52568853973174       12.04493329490397
H            4.39735274605956        2.13003014057704       14.42930896081406
H            6.58258783470829        2.52894324365144       15.47013250908712
H            8.65196211884686        2.32691139502276       14.13536551354189
H           12.46658926238893       -0.48796820525101        9.00081599357469
H           13.82498579127406       -1.00186559166466        6.99242257353953
H            8.43198840088807        2.39635659127199        0.47075231057421
