26
 energy: -3.734767959512 gnorm: 0.000104747737 xtb: 6.6.1 (8d0f1dd)
C            0.99648474429519        0.00081514930653        0.03376871878204
C            2.51680041095860       -0.03080924295355        0.01827232270933
C            3.07521430101494       -1.30943654237634       -0.60830145757225
C            4.60327207432524       -1.34867912750570       -0.62753095872575
C            5.15981063150198       -2.62722238955178       -1.25406420826707
C            6.68786938302827       -2.66645544010121       -1.27329004609662
C            7.24629410041482       -3.94507957262391       -1.89986277056774
C            8.76661312820653       -3.97668870952445       -1.91535332980330
H            0.60851127430921        0.91823054117814        0.48333500401794
H            0.58960825247339       -0.83965995403114        0.60008017046678
H            0.58960903842247       -0.06661433080404       -0.97744881863753
H            2.90800588960838        0.07360398521524        1.03943971677837
H            2.90800661128852        0.84019077099731       -0.52490662127735
H            2.69093289591403       -1.41713131192845       -1.63039462267552
H            2.69093206477140       -2.18317890151899       -0.06714881998349
H            4.98786394824139       -1.24138452939912        0.39446322224100
H            4.98786468596197       -0.47525986215978       -1.16893871595632
H            4.77522082742170       -2.73452337135920       -2.27605848767951
H            4.77522102523386       -3.50064567918724       -0.71266080310357
H            7.07214861282903       -2.55875608592959       -0.25119617564666
H            7.07214831150360       -1.79270949661148       -1.81443999888149
H            6.85509905954889       -4.04947786641807       -2.92103460301947
H            6.85510004087008       -4.81607414123017       -1.35666850719638
H            9.17347789618417       -3.13620332560645       -2.48165778971359
H            9.15459194369647       -4.89410074081883       -2.36491992452853
H            9.17347884797584       -3.90924982505772       -0.90413249566333
