80
 energy: -14.663562043003 gnorm: 0.000979305423 xtb: 6.6.1 (8d0f1dd)
C            0.81204289336301        0.27850494745746        0.20611280487822
C            2.32012780255137        0.20145201481021        0.02851560886698
C            2.85664886313374        1.24793709055753       -0.94876525457926
C            4.37006706685137        1.16400857326642       -1.14222911832409
C            4.90785432158707        2.20047119275236       -2.12749338721082
C            6.41541279272473        2.08700890500705       -2.34432242175502
C            6.95828027182556        3.09512482562000       -3.34728633189108
C            8.42701818418605        2.89418688385867       -3.58234918287182
O            8.80272558164570        1.81759116540478       -3.98196995112219
O            9.21537465589743        3.98814568465615       -3.30372286902873
C           10.59205786546850        3.89988326748678       -3.46674220984706
C           11.26989567801170        2.76486837039786       -3.86936710436513
C           12.64247348684750        2.74255714773767       -4.00397575779489
C           13.42434879432478        3.86215382309857       -3.74346414815086
C           14.87496243722573        3.84648448685993       -3.88017001229093
C           15.56489463947244        2.70712880704493       -4.27091101102283
C           16.94623225809616        2.69908294751159       -4.38852261054446
C           17.66759922772100        3.82763698135985       -4.12163778497594
C           17.03044810999345        5.01292125916454       -3.73388913168607
C           17.79230105115009        6.18821610616875       -3.44714469147362
O           19.19197983377761        6.22657109170189       -3.55752599779580
C           19.72861477666411        5.97283277759614       -4.80081429142173
O           19.08433167984498        5.76167701965622       -5.80178037862380
C           21.22587210482464        5.97556990467859       -4.87496726747571
C           21.75537814265521        4.72642862156866       -5.56616830581363
C           23.27827438063719        4.69751267783177       -5.67680320144410
C           23.79820893198062        3.45752968501937       -6.40241048816809
C           25.32265590549346        3.41626276530702       -6.49954324981386
C           25.84177806859589        2.18319862081175       -7.23983853279956
C           27.35904958300352        2.14229581282954       -7.32468000173432
C           17.11884955905373        7.32141859575562       -3.02322788305197
C           15.74553858079767        7.34113635481745       -2.89733737415240
C           14.96559316332778        6.22514016273903       -3.17914370679407
C           13.51373356051644        6.24212968533582       -3.04689777295925
C           12.82001711990376        7.37868693284455       -2.65411021837979
C           11.43829996238282        7.38119616657981       -2.52865342665715
C           10.71877558581718        6.24968315269728       -2.79137440902042
C           11.36100693503355        5.07284165347944       -3.19375164997196
C           12.77203116151377        5.05736852857255       -3.32912501421811
C           15.61855305636594        5.03101681177224       -3.60002199934334
H            0.44244772775194       -0.47365935447353        0.90650063164628
H            0.29437237973063        0.12542642834867       -0.74268957558228
H            0.50802645062577        1.25646650174235        0.58410735516770
H            2.60850583956873       -0.79947981750982       -0.31881706206934
H            2.82190964959324        0.32002522884877        0.99804199587953
H            2.58413680214963        2.25154268624769       -0.60108793725391
H            2.35556494959710        1.13669860938255       -1.91780947817219
H            4.64030427851488        0.15802627705573       -1.48485089914240
H            4.87304110587731        1.27947179420743       -0.17475676008132
H            4.65962282079438        3.20937767662149       -1.77714107828472
H            4.39070378051635        2.09676203870518       -3.08882399349246
H            6.66623130873347        1.07524351046124       -2.68580108247172
H            6.94111325248781        2.20181800444581       -1.38890712860976
H            6.78489854510646        4.11775563760195       -2.99903087627597
H            6.43266493566029        3.00124162480269       -4.30220901677372
H           10.69872789984436        1.88121225482744       -4.08111786727557
H           13.10836716922582        1.82770710186305       -4.32062791829392
H           15.02795350065433        1.80281646028772       -4.49016637921090
H           17.45282563444521        1.79888903472339       -4.69566250204439
H           18.73854018190588        3.82653357819731       -4.22058562652351
H           21.63396044379951        6.05595871634771       -3.86264994380141
H           21.55200212268637        6.87291297175801       -5.40956935024155
H           21.30664882249308        4.65281759430252       -6.56437058151703
H           21.40404946848311        3.83567464998140       -5.03176623247078
H           23.72113733535719        4.75254142197140       -4.67502829082588
H           23.62713729592427        5.59987147380069       -6.19316487928443
H           23.36373909176017        3.41130708352643       -7.40835964275156
H           23.43688414554029        2.55505085194200       -5.89463785596693
H           25.75641182214016        3.45147548369421       -5.49287339905148
H           25.68479475044439        4.32402463170119       -6.99725559906384
H           25.40620790229932        2.15578242578604       -8.24737922397865
H           25.46623314649153        1.27813166435055       -6.74436831547953
H           27.74941928317235        3.01940293377335       -7.84380822653934
H           27.71664154154445        1.25886199728840       -7.85820970952156
H           27.80990654675136        2.13001828759292       -6.33071671753157
H           17.69961757421886        8.19952809947441       -2.80405163088161
H           15.27724772133601        8.25123978594638       -2.57090960068034
H           13.35416577345633        8.28643614759688       -2.44209278640706
H           10.93002355257848        8.28101134961720       -2.22276181170791
H            9.64658537244706        6.24202565133368       -2.69782126862178
