53
 energy: -9.620739192632 gnorm: 0.000400986070 xtb: 6.6.1 (8d0f1dd)
C            3.46591762131538       -2.54603955166421        1.88661605116441
C            4.70063605238161       -1.65983683762821        1.85478580353507
C            4.77659024332637       -0.70503338098158        3.04697694057945
C            6.00069339610133        0.20952942431797        3.00638266897939
C            6.05624093174021        1.18643784773772        4.18038279467032
C            7.26384816240417        2.12048948939145        4.12468278173329
C            7.28509731007663        3.14028391259576        5.26248346678384
C            8.43576949163298        4.08558673975299        5.16752410623237
C            8.47162078980897        5.22737652233533        4.43794816506941
C            7.38741396391275        5.81452132591649        3.62466250859308
C            9.79384651510526        5.83212768623919        4.56494088147929
O           10.13311058679829        6.86820499302449        4.02777876539828
N           10.54247281979525        4.98421805660861        5.39989769945767
C            9.73215452387999        3.90116620341714        5.77727514408704
C           10.18357278431799        2.89449355898149        6.58673656699579
C           11.51416916964954        2.98051553759512        7.04870595084343
N           12.24672490171205        2.15255583701403        7.86498752132800
C           13.50482679044103        2.68180037813171        8.02462379356419
C           14.54995364715471        2.05180199037059        8.84635397553478
O           14.30193739816131        1.00935886266295        9.42433212838873
O           15.75747036799745        2.69028450383460        8.90805202935515
C           16.62261263507963        1.96858451765394        9.72291213292321
C           13.59293165009232        3.86581052120280        7.29859606583025
C           14.75234026634869        4.77745712824264        7.20514235030036
C           12.34452449753569        4.05508201863679        6.68874881456688
C           11.87936115231853        5.12546077158355        5.82112487947248
O           12.61040332787281        6.04666385691000        5.50472323633007
H            3.42333757286854       -3.22089322403233        1.02942045312536
H            2.55220309563363       -1.94969671622955        1.87989654018672
H            3.44326513583759       -3.15897208740369        2.78890232301423
H            4.72246325941313       -1.07847230663545        0.92408740588159
H            5.60812073976982       -2.27642062815843        1.82543019299610
H            4.77628911609959       -1.27963429071859        3.98060853110703
H            3.86561119956400       -0.09640753313520        3.08698399265830
H            6.00848834597257        0.76940143626774        2.06369529775945
H            6.91453472105241       -0.39577605340151        2.98578262451333
H            6.06206947680520        0.63063983457033        5.12525787295795
H            5.13536584279667        1.78087131155480        4.20473950821482
H            7.27634137816694        2.64699789757907        3.16351662783659
H            8.19027857887611        1.53460786147586        4.13825827175260
H            7.31449917388866        2.62422356756764        6.22803413010526
H            6.35009381047773        3.71085613006001        5.26857869588558
H            7.05817545457587        5.12255758746620        2.84953677759222
H            7.73644018937046        6.72583196453577        3.13696319272959
H            6.52886911343401        6.07201605844080        4.24508105143809
H            9.55691001694468        2.07005235692097        6.86732571202915
H           11.93529111314174        1.28425396538196        8.30112662470382
H           17.59036566230207        2.47317757447785        9.75640301192495
H           16.73728239587605        0.96235844037599        9.31270457511299
H           16.19464203575215        1.90707459339175       10.72635674146783
H           14.91565519407939        5.28848695269924        8.15408973210932
H           14.58489850134030        5.53195911509904        6.43431984938981
H           15.65888787898685        4.22372427787913        6.95957304024550
