105
 energy: -18.568117024281 gnorm: 0.000753150872 xtb: 6.6.1 (8d0f1dd)
C            3.74397538371870       -2.11829096135963       -6.39868089433161
C            5.18572835732363       -1.63614923509180       -6.41328801061291
C            6.18542882329271       -2.76367278860956       -6.67313791790406
C            7.63647764665077       -2.28479663131659       -6.68366076183365
C            8.63794786345527       -3.41407044247164       -6.92115441477721
C           10.08495263069250       -2.92728969210283       -6.92949091841828
C           11.09475493889054       -4.04309602495781       -7.18964551482619
C           12.53033136681125       -3.54157193445054       -7.18475131125117
C           13.50127495257521       -4.64092052426686       -7.51732320782151
O           13.78580811159593       -5.42156616090504       -6.63764500276617
O           13.96849882904851       -4.75795300161783       -8.82698848189204
C           14.03994946021256       -3.64749000770057       -9.65525460097584
C           14.43691551349846       -2.38054444058196       -9.17337661362853
C           14.68227128518226       -1.25293887152026      -10.03036354382375
N           15.80232637226316       -1.15660863750401      -10.86399701798645
C           15.49092931636512       -0.42529212713567      -11.97489197533896
C           14.16394845111805        0.05006950405617      -11.81858332493358
C           13.66969364775718       -0.41108936954959      -10.63111763324747
C           12.27303453944781       -0.24980455620018      -10.12567422701185
C           11.34970198123336       -1.38592438757433      -10.54012682877374
O           10.04549689153736       -1.26827862010734       -9.98162164971331
C            9.16803023688182       -2.25379261116332      -10.47595496641640
C           16.23879678269703       -0.41337892082110      -13.20263117333074
N           15.65046374525341       -0.28630734591340      -14.40255081615299
C           16.57958030376737       -0.54865972044874      -15.33710099028389
C           16.26174962393272       -0.67461806431421      -16.73011167013394
C           15.00545428665113       -1.01428283768323      -17.14462223632908
C           14.00480766364092       -1.52155084313305      -16.21407842015893
N           14.20570951662008       -2.62429713666590      -15.40283886792991
C           13.30668311454893       -2.60875872542304      -14.36537076812843
C           12.47638026913610       -1.48960701329975      -14.55000478509393
C           12.87485192462877       -0.83155291108009      -15.69585509928615
C           12.37823911552745        0.49405085446407      -16.15929881958059
C           13.01855975291040        1.65023619996223      -15.39837458396145
O           12.59522499785650        1.71137262010788      -14.04032015945895
C           13.03923364223235        2.88573789874787      -13.39745996230584
C           13.43331263114919       -3.41393618773080      -13.15755045182654
N           13.40813359727258       -2.88653812120385      -11.92671397354213
C           13.78661970202095       -3.85051484267004      -11.06832782402726
C           14.00887195903128       -5.07080658787776      -11.77638017512673
C           14.54795970002577       -6.33103931054141      -11.19821382353707
C           16.01495959051904       -6.20915811824451      -10.80178137084973
O           16.86551635751620       -5.89887098462640      -11.90344362142321
C           17.09563227971662       -4.51825690383456      -12.06745692185320
C           13.82286023196029       -4.77701435777834      -13.09590002542127
C           17.84884036769426       -0.78197557327505      -14.70812330629444
C           19.12099021838546       -1.18210745859612      -15.37636779234286
C           19.23256716556372       -2.68771559811161      -15.56213667201347
O           20.44270471498294       -3.06113700262345      -16.21198656133567
C           20.56994418211053       -4.45628489552175      -16.35125281178078
C           17.61465532442976       -0.73365364164840      -13.36594082755496
H            3.04088688202824       -1.30483492818509       -6.20774922690988
H            3.58850619392516       -2.87388602356404       -5.62686162320260
H            3.46994449578177       -2.57170483275301       -7.35260913046524
H            5.43012900226478       -1.14845069072780       -5.46050150414417
H            5.31559168169700       -0.85450704336352       -7.17323153017285
H            5.95144604088070       -3.25180983031167       -7.62684121083658
H            6.06205929850256       -3.54618357256162       -5.91478787064721
H            7.86589833469720       -1.78442401816495       -5.73515038279506
H            7.76460764519099       -1.51152204949333       -7.45068887719028
H            8.41134522166009       -3.91559073914102       -7.86943121931089
H            8.51325598853448       -4.18689491733104       -6.15331564624770
H           10.31485259493849       -2.43908343570147       -5.97506087571441
H           10.20312636790087       -2.14260097499569       -7.68658885381690
H           10.87977579559325       -4.52141735570693       -8.15266729898392
H           10.98248219819893       -4.83827392128186       -6.44317342498312
H           12.78621887290088       -3.13172638318074       -6.20309820634163
H           12.62087799920210       -2.71463972988177       -7.89078387469246
H           14.79191370741956       -2.35349769499592       -8.15319658527550
H           16.60239010244223       -1.78497517365293      -10.79087459286991
H           13.60608606862909        0.57611398729367      -12.57367340282803
H           11.86119510811602        0.70199861362510      -10.47623005046244
H           12.28981658106635       -0.17932870671629       -9.03332855151296
H           11.75959999118159       -2.35129563572203      -10.22506189898353
H           11.25662805420473       -1.42321843922010      -11.63046557989926
H            8.19660511701654       -2.13821301798597       -9.99456345304101
H            9.56236958919834       -3.24721641783993      -10.25850357801744
H            9.04775202443670       -2.13402399798723      -11.55336115247528
H           17.03831933202128       -0.49561957987584      -17.45416489639240
H           14.76762525381890       -0.97596538489432      -18.19708427122334
H           15.04970061935672       -3.19802969397219      -15.42181016522610
H           11.72184767044490       -1.14620451025508      -13.86448691044184
H           11.29170310778910        0.53630385367188      -16.03280251471072
H           12.56598154079660        0.58870121836099      -17.23498648968088
H           12.77616966406634        2.61065380401533      -15.86857567627948
H           14.11008814941861        1.54898069054296      -15.39911886847047
H           12.69431099063925        2.87638510913297      -12.36302146370228
H           12.62859178642180        3.76208819830779      -13.90000429548770
H           14.12922758621044        2.92756489464421      -13.41351479801341
H           14.43177052619222       -7.13887508213982      -11.92778406515057
H           13.94222750069092       -6.60722278245782      -10.32677704565853
H           16.38428356706746       -7.14893745858166      -10.37293737683139
H           16.14652253007149       -5.44079006943185      -10.03060721365887
H           17.72032809144561       -4.37033707289463      -12.94828030159899
H           17.61428118939304       -4.12493799463069      -11.19258949058711
H           16.15473007558284       -3.98776505017214      -12.20824323952826
H           13.97844232364068       -5.43777953793034      -13.93157223117997
H           19.97373233494461       -0.82188310652135      -14.79191304593796
H           19.20216434683510       -0.68620672230931      -16.34861760047035
H           18.39343091475412       -3.06500522178079      -16.15745979906665
H           19.19407221115527       -3.19648789092076      -14.59271864685270
H           21.51177618889959       -4.67320999830756      -16.85625571937633
H           19.74442386692352       -4.84665881867903      -16.94752560860579
H           20.57302666223955       -4.92850402041364      -15.36807607939441
H           18.32564165049952       -0.92397379152113      -12.58036925513718
