40
 energy: -8.263003620334 gnorm: 0.000728229946 xtb: 6.6.1 (8d0f1dd)
C            0.97018769188143       -0.14984721503587       -0.30714860601951
C            0.14172457708311       -0.94705320328259        0.39164070066934
C           -1.30159248495925       -0.92543549393168        0.32817063129910
C           -2.01301070362911       -0.08592293021703       -0.56446620424950
C           -3.36515991080308       -0.09923596831609       -0.59446472456825
N           -4.09818332555362       -0.92569408316972        0.24142170335117
C           -5.48293637063240       -0.93533498979622        0.20696367852131
C           -6.20331711657060       -1.73808868072242        1.02301814995787
C           -5.55748536706743       -2.59932186080635        1.94442738773754
C           -6.28665859191099       -3.47185118717077        2.83574964332352
C           -7.62450791987092       -3.60545880658989        2.88103605825457
C           -8.33164952962282       -4.48987573726614        3.78821911227269
C           -7.70820741904963       -5.32234502762486        4.78799736560440
C           -8.58555888208948       -6.05173071008729        5.50428499399677
S          -10.20932561408461       -5.75082049763357        4.98581194840616
C           -9.69067032324021       -4.62605938377223        3.78726109401841
C           -4.17762171170301       -2.59071658084965        1.97760243831716
C           -3.43234966997189       -1.76031650998416        1.13095222868844
C           -2.03208983037225       -1.74992242621395        1.15979956855642
C            2.41821760770723       -0.19920310864860       -0.22511104681889
C            3.17077734505069       -1.15674293755321        0.54808984592937
C            4.50477888102960       -0.99310448561614        0.45639435576011
S            4.89486163097859        0.33803519289432       -0.57880720132983
C            3.23316022839921        0.67221781140249       -0.88989058142922
H            0.55445366507919        0.58564568507111       -0.96996670309128
H            0.57702443562620       -1.66031226416044        1.06746007593618
H           -1.47261614861048        0.56148661485622       -1.23109154764755
H           -3.90486821145365        0.53634202192905       -1.27397070077166
H           -5.97383969986880       -0.28123794036719       -0.49167554934982
H           -7.27701814563357       -1.71868421477160        0.97484306800195
H           -5.69594928445924       -4.06166234801165        3.51286906764255
H           -8.23132757078773       -3.03263361195098        2.20504989924310
H           -6.64195672461521       -5.35588305307967        4.94794158802131
H           -8.33148759503711       -6.73192112151156        6.29509032479798
H          -10.35788996025210       -4.10513328479624        3.12895349518851
H           -3.66026359171355       -3.23410171480271        2.66626281716616
H           -1.51887206145213       -2.39736855240094        1.84776722718357
H            2.70967140571287       -1.93366960374647        1.13728995573759
H            5.24202230349565       -1.59763079768028        0.94977678748420
H            2.89251399296823        1.46569300540952       -1.52561234579613
