103
 energy: -18.436977540127 gnorm: 0.000747789891 xtb: 6.6.1 (8d0f1dd)
C            0.82948576394919        0.43040840925158        0.25606704311566
C            2.33983217680646        0.27003053115515        0.32708892325653
C            2.86639792682730       -0.80365677872951       -0.62573799680091
C            4.38384235096516       -0.97497430097335       -0.55750523165721
C            4.90513883909533       -2.04753214971947       -1.51303356044489
C            6.41958156616105       -2.23846362931446       -1.43472447389914
C            6.92524265347504       -3.33283060398014       -2.37370731153823
C            8.43024727740869       -3.56689211971570       -2.26273489484809
C            9.01414623066820       -4.64752878449630       -3.21231697589529
C            8.89266830199188       -4.23025370009301       -4.69892926604534
C            9.47891002608888       -5.25728333858900       -5.66649380673020
C            9.28926651139425       -4.87593335879035       -7.13315769444620
C            9.82380654016899       -5.93524082511998       -8.09637364226720
C            9.60911453233695       -5.57112960966217       -9.56510923114438
C           10.12794279223377       -6.63895365928374      -10.52784327122106
C            9.90651913782507       -6.27941680211251      -11.99757119270238
C           10.42500902897209       -7.34557045612496      -12.94949848704035
C           10.47684733855891       -4.90088978363193       -2.83125999850705
C           11.55883299478950       -4.05027772754945       -2.86426891795200
C           12.81277785276760       -4.50424245974139       -2.44777330376745
C           13.98140781658359       -3.59884091486867       -2.46776810756797
C           13.84949428860704       -2.25491255754056       -2.11836718039731
C           14.93674471068313       -1.41336387307091       -2.13269004314836
C           16.18832588771710       -1.88466672084327       -2.49629316348359
C           17.35467955571308       -0.96941617225326       -2.50506640426213
O           17.20764663222434        0.20067274887325       -2.20166894772440
O           18.55589694787492       -1.51856418053228       -2.86461824598630
C           19.54544200121928       -0.54239562753771       -2.81456714127413
C           16.32986800374167       -3.21882909748725       -2.84607944843739
C           15.24479880610492       -4.06369187583620       -2.83292015484792
C           12.94024068150376       -5.82625232720083       -2.00421396270170
C           11.86187171803680       -6.68187390587306       -1.97010966922483
C           10.62091119107308       -6.21604973099331       -2.38290658745565
C            9.32952386883474       -6.90251426450356       -2.47497269058743
C            8.99355254059123       -8.22235887014731       -2.20390224333257
C            7.70795038021368       -8.64857215666171       -2.45220822055255
C            6.74267380675993       -7.78576731760414       -2.98434740681776
C            5.37356875260373       -8.26290765486375       -3.27273380619577
C            4.72336194527361       -9.14604729061648       -2.41122690875223
C            3.44426693319812       -9.57499711715578       -2.67753934119662
C            2.77476174083328       -9.13767774014151       -3.80977754928944
C            1.39294021669221       -9.59920153563498       -4.08446452859495
O            0.84483081008334      -10.36372851932247       -3.31130278116296
O            0.80735814213195       -9.11797991846898       -5.22440374282964
C           -0.47777182639504       -9.63798650727620       -5.34147636516053
C            3.41430051673629       -8.26269757082095       -4.67423767668569
C            4.69301431088215       -7.83129265581441       -4.41135672682083
C            7.09503649964907       -6.46101630444810       -3.25065122120737
C            8.37066753476141       -6.01895518690797       -2.97887441217340
H            0.46563471682632        1.20096068414922        0.93917686957175
H            0.32103641090227       -0.50099538285057        0.51151840649628
H            0.50848934804301        0.70593273672680       -0.75008147495457
H            2.64587644983085        0.02594055553271        1.35293361543129
H            2.83238265566454        1.22572387624156        0.10436902983609
H            2.56905027991476       -0.56169640294293       -1.65329961432799
H            2.37798985160736       -1.76100636647482       -0.40692559116865
H            4.68056503547359       -1.22115524669613        0.46915511033654
H            4.87409061000063       -0.01821967962330       -0.77406437044002
H            4.61804272937326       -1.79690997735018       -2.54132828289202
H            4.40427563677821       -3.00028907762790       -1.30277510666422
H            6.70704305857242       -2.47687289875528       -0.40364630422804
H            6.92582374119233       -1.29228333887113       -1.66050088921863
H            6.65676242062378       -3.08008955816371       -3.40533855305932
H            6.39085289945131       -4.26304619974572       -2.15285568803533
H            8.67457102414958       -3.84974088657313       -1.23359022429066
H            8.96105699414087       -2.62589948747038       -2.43805581309032
H            9.38268688736930       -3.26222457108619       -4.84161132896700
H            7.83842689188793       -4.06891272875018       -4.94091662391335
H            9.01965884435065       -6.23596231716717       -5.48298148790544
H           10.54493623555973       -5.40110606806155       -5.45400405458913
H            9.77600930332823       -3.91350662271065       -7.33142877722269
H            8.22463339389504       -4.70367628800874       -7.33232101798412
H            9.34555587620435       -6.89904457949280       -7.88372495912906
H           10.89153396078004       -6.09998496164862       -7.90820177880035
H           10.09412697835813       -4.61170633514076       -9.78160175618923
H            8.54176539331833       -5.39829224997083       -9.74855199566945
H            9.64526210182077       -7.59877985717213      -10.30749106326642
H           11.19607239221518       -6.80989046376906      -10.34734815334475
H           10.38731630923878       -5.31579789593725      -12.21150993287005
H            8.83624972677817       -6.10655486114471      -12.17109903827535
H           11.49622412131251       -7.50657653793004      -12.81645864324754
H           10.26092900090852       -7.07721189118633      -13.99536454187213
H            9.93204086784466       -8.30364281381294      -12.77568698841358
H           11.43863551409417       -3.04417486191351       -3.22160625816132
H           12.88558283697394       -1.88133538752295       -1.81939777239947
H           14.83758366222646       -0.37642834967721       -1.85985086664028
H           20.49888535483241       -0.97823866845121       -3.12013263588315
H           19.61743110130750       -0.16305073366666       -1.79249389885030
H           19.27454332644762        0.27417148316407       -3.48799637908522
H           17.30446176070694       -3.57882702582796       -3.12777188209538
H           15.36290574376003       -5.09424020954189       -3.11962341922132
H           13.90301062092627       -6.17032950061517       -1.66837009970928
H           11.96697114529388       -7.69676875715612       -1.62932069604990
H            9.73834149882248       -8.89619238119036       -1.81864233826655
H            7.43999785196434       -9.67328036636108       -2.26175342633566
H            5.22778610852836       -9.47917703575130       -1.52095098693251
H            2.93842668442688      -10.25356170015681       -2.01186246259531
H           -0.93824845735541       -9.26260862051980       -6.25760937092032
H           -1.06605955608478       -9.32986987811706       -4.47387600955305
H           -0.41810452494972      -10.72849265774486       -5.37254804006794
H            2.89021589698039       -7.92905379580653       -5.55334252127081
H            5.18515753390436       -7.16196596919133       -5.09555215850846
H            6.37302949305985       -5.79171189770646       -3.68012978667726
