95
 energy: -17.267486876585 gnorm: 0.000699686917 xtb: 6.6.1 (8d0f1dd)
C            0.90244793183110       -0.50854161160172        0.17054453882813
C            2.41517068520273       -0.35918362380880        0.20832249428178
C            2.93041367728112        0.68850860892720       -0.77900597666236
C            4.45035762705141        0.85048112531336       -0.74802071149419
C            4.95440126495449        1.89759593413449       -1.74039983522133
C            6.47092969475479        2.08641013250795       -1.70472073446497
C            6.95068482896106        3.15167459119443       -2.68974257107672
C            8.45603474959450        3.40103665690898       -2.62443643174378
C            9.00057203302407        4.46065169378928       -3.62121996692653
C            8.87100967516245        3.98383967224457       -5.08948936677487
C            9.42566003992397        4.98244473406445       -6.10431571327906
C            9.24365995286328        4.52978131025395       -7.55189426808096
C            9.75614328496346        5.55354946903280       -8.56442509763256
C            9.55545872312273        5.11405018345307      -10.01461184511460
C           10.05358843022003        6.14590122761525      -11.02651274356063
C            9.85033523940241        5.70960360986399      -12.47808674949359
C           10.34779867958244        6.74068167537615      -13.47856713091824
C            8.32267812474205        5.82126456203561       -3.42705437771269
C            7.03010025876806        6.21619289402257       -3.68957820674628
C            6.63986157566478        7.53605350192112       -3.45226396963996
C            5.24597943896248        7.95277423490433       -3.71103016126920
C            4.18451400035704        7.09021271370956       -3.43473245508478
C            2.88685883740387        7.46715942725480       -3.68846983933751
C            2.61525097915635        8.71124197779198       -4.22362682601349
N            1.23479316646997        9.10334678041772       -4.49925629293108
O            0.32750457302647        8.30824739943872       -4.21410411249326
O            1.02701433234934       10.21411767684072       -5.00858256209635
C            3.65445293006452        9.57904676201746       -4.49919226692710
C            4.95470729383621        9.20743369276632       -4.24710469481163
C            7.58849679039364        8.44494589038704       -2.96839253919752
C            8.89116121258398        8.06608786854499       -2.73279106883752
C            9.26236314176717        6.74811967041155       -2.96626504954838
C           10.57330257808861        6.10199305807117       -2.87059946482476
C           11.80701873935923        6.61774939938986       -2.49641859050953
C           12.90957750146952        5.79354043664618       -2.52147546180330
C           12.81360575715787        4.45364103363396       -2.91755344806290
C           14.00910184195102        3.58477657845930       -2.93998903224869
C           14.98137932713451        3.67408119772328       -1.94322285174013
C           16.08809099352378        2.85769532167777       -1.96536508059518
C           16.25301066036350        1.93427758947132       -2.97962500561353
N           17.42816516019251        1.06600545668812       -2.99925540897375
O           18.25377368326558        1.16873891871575       -2.08019088943614
O           17.55182716268914        0.26133783657203       -3.93428154712705
C           15.30073195459354        1.83531532043159       -3.97553593456086
C           14.19202672763165        2.64871400054315       -3.95842906667546
C           11.56632363836228        3.94885924413550       -3.29463633558403
C           10.46060201875173        4.76827330978924       -3.27213218838919
H            0.54607393132682       -1.26064698056997        0.87749024280788
H            0.55955198622729       -0.80355866782132       -0.82257176835002
H            0.40669155427090        0.43244792225969        0.41490741335349
H            2.89546965393355       -1.32354572995636       -0.00261988455247
H            2.74329002551605       -0.09458372212008        1.22197489578208
H            2.45379104570587        1.65412350746423       -0.57159380772139
H            2.60934226909538        0.42595997685132       -1.79412311333667
H            4.92958734955787       -0.11405618392954       -0.95369623677641
H            4.77170896308537        1.11847473203003        0.26552510008238
H            4.46167875838647        2.85692405519897       -1.54130214259566
H            4.64181503190337        1.62365919363527       -2.75513510599871
H            6.97039149094017        1.13330568249647       -1.91510475844576
H            6.78452862692229        2.35575766923843       -0.68912263704047
H            6.41584766829668        4.08523755490037       -2.48519833759201
H            6.65913752781294        2.86513894431770       -3.70612880605837
H            8.99207603224751        2.46073788843568       -2.78615292836377
H            8.72380774851695        3.71701606948287       -1.61096009465555
H            7.81804212791320        3.79035947021089       -5.31222325020952
H            9.38015863995854        3.02151848412389       -5.19944916923177
H           10.48802775643350        5.16387070717249       -5.90310247251356
H            8.94063393663328        5.95550033054760       -5.96273037886340
H            8.18306132073175        4.32579249816050       -7.74154863716713
H            9.75084874959780        3.56988956506618       -7.70557982187484
H           10.81904577165624        5.75201551144430       -8.38226357822516
H            9.25484621100080        6.51484510892684       -8.39971660868920
H            8.49326408124876        4.90789281920260      -10.19257995119205
H           10.06339603661434        4.15701111505907      -10.18313372066698
H           11.11594428692819        6.35192440058455      -10.84950492810739
H            9.54615154010356        7.10294514482124      -10.85603007723009
H            8.78596614534007        5.50152521493674      -12.64833849792615
H           10.35657037230167        4.74940367476545      -12.64222909496837
H            9.82955162552187        7.69302833391652      -13.35479541960620
H           10.19742158441073        6.41709251492463      -14.51061590796356
H           11.41356442480591        6.93534495724702      -13.34797895543532
H            6.32997470007886        5.52037560556276       -4.11347882316967
H            4.38862020133324        6.12468303184364       -3.00551733669381
H            2.06520912881227        6.80475409960303       -3.47600774940745
H            3.42458512455877       10.54446451986089       -4.91681810230381
H            5.76091756043807        9.88070419258217       -4.48069777084878
H            7.28485131108829        9.45860364588295       -2.77298429930497
H            9.62020888176912        8.77277043697751       -2.37767511996133
H           11.88908212342393        7.64818549720840       -2.19894955003329
H           13.87344434785090        6.18605529993081       -2.24781179985276
H           14.85056490999887        4.38033134755594       -1.14196124890304
H           16.83938868561359        2.92072352182474       -1.19659822342572
H           15.44775422598489        1.11388527919680       -4.76119598441582
H           13.46160168955412        2.57844252128641       -4.74564368436668
H           11.46492191658825        2.92019009397287       -3.58754102984089
