115
 energy: -19.626456706978 gnorm: 0.000807197942 xtb: 6.6.1 (8d0f1dd)
C            0.02015640714013        1.59945680497300        1.66268971196380
C            1.37974984182157        1.29826118906853        1.05181900724930
C            2.33925235735098        2.48695633128453        1.12708791863857
C            3.70674521062846        2.19165664908427        0.51083424579347
C            4.65964678606910        3.38519098842026        0.57074368775524
C            6.01973027933215        3.09556895862715       -0.06314333352917
C            6.95749394076726        4.30070965208362       -0.03362528861360
C            8.30822549233570        4.02398921969975       -0.69076952241511
C            9.24838172290269        5.25525229699202       -0.71378155077552
C           10.58466694074788        4.90552809670612       -1.41559815753608
C           11.53401123144109        6.09495835653742       -1.54517214631005
C           12.80297351796811        5.76542085325049       -2.32876579294715
C           13.70572062436931        6.98140304191255       -2.53312613672284
C           14.94987216409864        6.66956765635750       -3.36398900862148
C           15.82945648383347        7.89656561281569       -3.60356180643965
C           17.06497341775195        7.59176982050538       -4.45178533149229
C           17.92777688938066        8.81970573689788       -4.69586348905563
C            8.57149541143677        6.44201031919586       -1.40324449752448
C            8.14396281817642        6.58309342726341       -2.70432429761715
C            7.57005408804567        7.78690009248549       -3.11970605592717
C            7.12749946792680        7.95850432602749       -4.52185335646122
C            6.51599376223101        6.91256607246870       -5.21229678993033
C            6.12272045215502        7.06892575515994       -6.52516626724618
C            6.33000974922576        8.26758379457201       -7.17637468854208
Si           5.80852581708263        8.50631000618871       -8.94481664303917
C            5.37943999668439        6.86597973333956       -9.74062809403230
C            4.31038659722276        9.62609923529367       -8.98736316696451
C            7.20485741299253        9.30036543816414       -9.90663496508520
C            6.92712066716658        9.31446990626615       -6.50490821864259
C            7.32471541221476        9.16483208670803       -5.19254863436900
C            7.43745253502797        8.82856297660354       -2.19307138064261
C            7.86770243760903        8.69432662141207       -0.89083706639849
C            8.44190105522203        7.49435291017249       -0.49335291695865
C            8.99962618618050        7.08668628552384        0.80122905321316
C            9.09538020828545        7.78005352486841        2.00035784272127
C            9.67318009326107        7.15843208378037        3.08594958096308
C           10.16488039467717        5.84991335070783        3.00367911197320
C           10.77654782977532        5.19595968108180        4.18301123684751
C           10.21447801332873        5.33520421915692        5.45121200391849
C           10.78065826616971        4.71240942874976        6.54419776026646
C           11.91467705583425        3.94044121478416        6.39752979365103
Si          12.62605798123265        3.09972345183749        7.89540778118397
C           13.13532448284799        4.39739927122538        9.14431939963966
C           11.32108633623260        1.99109925157119        8.65142567390818
C           14.11896110158219        2.06418478817884        7.43956598896676
C           12.48543506220485        3.79624802264073        5.14959195186842
C           11.92442941049845        4.41544563053538        4.05203840469532
C           10.06714683022947        5.16550285787662        1.78984221613679
C            9.49083222390442        5.78218297481141        0.70200658391479
H           -0.65674080386724        0.74375582433074        1.60200863362882
H           -0.46391701956332        2.43677834996157        1.15585698792019
H            0.11175754411476        1.87095308415700        2.71631167138759
H            1.26366087793310        0.99212063361549        0.00329952065242
H            1.83538225399169        0.43206780854258        1.55041734140761
H            2.46440581017249        2.79479011710806        2.17273757631143
H            1.89002544054410        3.35452445435284        0.62768210669348
H            3.57940850007226        1.87519778260145       -0.53197328058090
H            4.16157843484525        1.33034386180642        1.01581461175455
H            4.79686878695868        3.69773118815872        1.61338943484554
H            4.19931350540796        4.24825182412078        0.07386284011846
H            5.87922681809865        2.76541260603538       -1.09990606412136
H            6.49253623585331        2.24604296910864        0.44498882543028
H            7.10976963088262        4.62693539039257        1.00255909047646
H            6.47548184419773        5.15180494315391       -0.53023679513441
H            8.15305599556958        3.67872050593984       -1.71815576287257
H            8.81091108180822        3.20049568257469       -0.17322333494270
H           10.36395545019289        4.50468723484421       -2.41034608253181
H           11.07569695969264        4.09300335978560       -0.87043171851329
H           11.79615345625126        6.47280580939531       -0.54931760885039
H           11.01203636786414        6.92646067018746       -2.03448462324858
H           12.53086661239400        5.34444745075027       -3.30475125226857
H           13.35872246243399        4.96844820219910       -1.81946412689357
H           14.00198241665302        7.39085143937700       -1.55941836435924
H           13.13471542090770        7.78386552727405       -3.01665871152577
H           14.64967628047625        6.23943867800824       -4.32765910994092
H           15.53578785831380        5.88331134305721       -2.87202950689847
H           16.13809450297003        8.32307424055969       -2.64099201584846
H           15.23779786384209        8.68442999399911       -4.08630616045651
H           16.74907820843475        7.15529770159196       -5.40903125494363
H           17.65519553654517        6.80465196344095       -3.96336481301136
H           17.36738201679850        9.59971264915877       -5.21522906652759
H           18.80844343621320        8.58971835008156       -5.30024561265172
H           18.27829701365428        9.24961377907181       -3.75540539949403
H            8.27316675107093        5.77510016790290       -3.40104875882347
H            6.34196700088319        5.97888576181413       -4.70548226011815
H            5.64972240570576        6.25628427485998       -7.05014103759336
H            4.51883991832418        6.42134471593860       -9.24830811108110
H            6.22095504193539        6.18254814873144       -9.66531374566317
H            5.14242142732970        7.01486662221349      -10.79060759436381
H            3.49727484363786        9.17818173255429       -8.42260533979550
H            3.98431636554548        9.77981686112744      -10.01254131467013
H            4.55341604818684       10.58949906447529       -8.54749031373852
H            8.10245339347390        8.69342875073295       -9.82555887718927
H            7.41602610923483       10.29237515410261       -9.51711312655044
H            6.93328549291558        9.38699491992538      -10.95529223165568
H            7.08172946963582       10.24951897753237       -7.01715292210835
H            7.80891223239954        9.97829495280987       -4.68013137559270
H            6.98238924737273        9.75079968107535       -2.51104524650554
H            7.76885036894224        9.50049590008086       -0.18518854000736
H            8.72229244722390        8.78695240294111        2.06822788759007
H            9.76243659094891        7.68762102077608        4.01912534910994
H            9.32066543003811        5.92359557606216        5.56770373954846
H           10.33970475776807        4.81937588422427        7.52140508486999
H           12.27329186710936        4.98609899261749        9.44609843868636
H           13.87792034041768        5.06069634221036        8.70913486709864
H           13.56077482708447        3.92178181106734       10.02395626259637
H           10.46587443832888        2.58056598506065        8.97057678379914
H           11.72862059418326        1.46929545190818        9.51314262681399
H           10.98852444332764        1.25814601501620        7.92135119118170
H           14.89885689707642        2.69341697042308        7.01876444199338
H           13.84230703043486        1.30788283149207        6.70958374502663
H           14.50911927413700        1.56886133993359        8.32494429934131
H           13.37256014750831        3.19599465732998        5.03919818355403
H           12.37711939605638        4.30811102889958        3.08123764835172
H           10.42601613650530        4.15586258157570        1.70681191964816
