109
 energy: -20.674639451436 gnorm: 0.000617841125 xtb: 6.6.1 (8d0f1dd)
C            1.08337265773419        0.00298638403502        0.50970014319786
C            2.59581353521730       -0.08181892283273        0.37758403736519
C            3.12045399650407        0.63095555795204       -0.86926127823700
C            4.63959834656989        0.54458599277023       -1.01702886309955
C            5.15354424520786        1.25426926477399       -2.26870354133876
C            6.66858403250629        1.15124148382763       -2.44320138039876
C            7.15924659059487        1.85376750919880       -3.70806254907770
C            8.66837312479206        1.73956093918875       -3.91385106487558
C            9.20915807109438        2.36198921133584       -5.22850362133328
C            8.64150564570028        1.63757099838166       -6.47364051994692
C            9.18278474109981        2.17523327499824       -7.79638666091087
C            8.56474161872285        1.48487441877240       -9.01049533389562
C            9.06613845181050        2.04796970467904      -10.33932483477520
C            8.42174223985307        1.37336751685756      -11.54988594664044
C            8.90080133217336        1.94835047496747      -12.88237998282762
C            8.24642916604038        1.27806051275469      -14.09133632379457
C            8.72057669595852        1.85742394194349      -15.41458248764888
C           10.74051799038574        2.30718112097410       -5.21518095562041
C           11.58976996634445        1.22146603119402       -5.21526970908905
C           12.96962637811462        1.42361091634416       -5.21084121406325
C           13.85323330237973        0.32348666835854       -5.23157636576920
C           14.62741720735108       -0.61764507165507       -5.27334374876048
C           15.49509393093500       -1.65935322474221       -5.34725052722114
C           16.28123754930801       -2.58732319806175       -5.43653842113709
C           17.19998933331746       -3.64975616108762       -5.56445097588276
C           18.31410183739644       -3.52784877149662       -6.39129823432726
C           19.20928992650894       -4.56243495823920       -6.52459532338725
C           19.02304352152483       -5.75994853067973       -5.83703656444056
N           19.95188648999162       -6.84062610882016       -5.98323365895510
C           21.34869818962908       -6.56784642673540       -6.17195497211391
C           21.96661105072420       -5.51910267392794       -5.49535109646701
C           23.30642768757701       -5.25924701970066       -5.67597971074150
C           24.05385585499772       -6.04144069286996       -6.53490555337908
C           23.45576045790260       -7.08584799166552       -7.21279939661162
C           22.11608015511181       -7.34762227795182       -7.03376411090719
C           19.48810018420048       -8.19883346711072       -5.95967347977237
C           18.26738172692193       -8.54468057815452       -6.53400471493202
C           17.82748618907203       -9.84908072746167       -6.51737572996726
C           18.59815214793907      -10.83229576443507       -5.92788709111404
C           19.81169683539613      -10.50557052377636       -5.35454956373704
C           20.25347930226733       -9.20173223171303       -5.36980764256876
C           17.90925033225264       -5.88126846415062       -5.00842664681304
C           17.01525709641854       -4.84533570510073       -4.87438943353806
C           13.46760101904596        2.72934067894339       -5.20108500067527
C           12.62468137504346        3.81984851538723       -5.20111181724948
C           11.25252244373305        3.60726192479352       -5.20836610296486
C           10.14478802460601        4.56445377290684       -5.25830296021195
C           10.16200602703759        5.95243693861470       -5.33202215225889
C            8.96908521617947        6.62967852171970       -5.45118663362405
C            7.75407701913714        5.94128589273264       -5.51362816428705
C            6.48744744083492        6.64765345562367       -5.65859055787431
O            5.40687511068941        6.12330044344564       -5.71698109169009
C            7.74642880422793        4.55195748356370       -5.44377780685521
C            8.93251874061849        3.86728128808814       -5.29726045705458
H            0.71985531275531       -0.50865759434708        1.40366504748337
H            0.58622702989057       -0.44746368629160       -0.35144581170244
H            0.74964598148577        1.04073890810280        0.56659356691137
H            2.91530559523091       -1.13222541696556        0.35597001975525
H            3.07805480416935        0.34310156635961        1.26793208134100
H            2.81178738938265        1.68326677403706       -0.84935014916154
H            2.64026317479515        0.21127642007379       -1.76168652230016
H            4.94854654191296       -0.50761340971558       -1.03692678455159
H            5.12267703819572        0.96736116370565       -0.12777402013135
H            4.85715116860711        2.30996983176532       -2.24197499375205
H            4.65452638158685        0.84233440514373       -3.15435659494442
H            6.96673474225327        0.09600592201744       -2.46727242809626
H            7.17354213961893        1.57176094388608       -1.56510150821030
H            6.86948928204356        2.90950338127791       -3.66500725547764
H            6.62988503011936        1.44203287092331       -4.57446582998774
H            8.96236170023214        0.68547217797573       -3.88337143147398
H            9.18625059789561        2.20994439373190       -3.07147920519186
H            7.55118382952431        1.72323867155968       -6.47238121487801
H            8.85630469970787        0.56732005976723       -6.39296192099940
H           10.27395786458873        2.06933602713103       -7.82300016902674
H            9.00015911851919        3.25498744344003       -7.85595188572707
H            7.47236068928730        1.57335219986576       -8.96452652270129
H            8.76571831794204        0.40756726513531       -8.96503297330670
H           10.15686866356796        1.94785849244918      -10.39567137983922
H            8.87642389549276        3.12764977304105      -10.37565836419305
H            7.33065713172238        1.46345448163726      -11.48248417296160
H            8.62059705292796        0.29511751190861      -11.52016366457709
H            9.99129705519219        1.85489021800874      -12.95371210224851
H            8.70509084802445        3.02726666092445      -12.90917606858567
H            7.15511148910141        1.36848168524966      -14.00869793763533
H            8.44452773213819        0.19845181163945      -14.05823632979594
H            8.49918504544405        2.92431297677758      -15.48009798349869
H            8.24603148499937        1.37045484835270      -16.26950868177008
H            9.80019047931576        1.74524890500115      -15.53032489735223
H           11.19209376646464        0.22293481072367       -5.22563031351406
H           18.46374526570652       -2.60752065831357       -6.92979551571254
H           20.06049246375166       -4.46465819750914       -7.17543385005217
H           21.38094107655887       -4.91984893270003       -4.82028933000370
H           23.77304792787826       -4.44528671656917       -5.14545739828482
H           25.10278152581801       -5.83738962002009       -6.67555684675524
H           24.03833539755751       -7.69582985737192       -7.88382077542103
H           21.64181070393222       -8.15376566242607       -7.56576581299190
H           17.67709743690048       -7.77630425301626       -7.00194725903913
H           16.88143097844354      -10.10370767201550       -6.96669430105633
H           18.25334627240039      -11.85338659802940       -5.91603277472542
H           20.41337930276215      -11.27226899268168       -4.89424585265648
H           21.19406841160521       -8.93916249699832       -4.91794612254135
H           17.76511498168206       -6.79813392679775       -4.46411604980356
H           16.15768506724089       -4.94766786567574       -4.23143137959555
H           14.53447347552742        2.87423021907747       -5.19987929049404
H           13.01230754694212        4.82335914217461       -5.20322017475193
H           11.09994996897674        6.47860111856989       -5.30572366855823
H            8.96335471793051        7.70452212678079       -5.50943784331008
H            6.50804844703621        7.72636823899591       -5.71832068959054
H            6.81214560055128        4.02845676326154       -5.53130886833681
