109
 energy: -20.117833755259 gnorm: 0.000664299319 xtb: 6.6.1 (8d0f1dd)
C            1.26540424556602        0.99690728233583       -2.04240221987033
C            2.58658807136178        0.59923324327002       -1.40343544902942
C            3.20813508078819        1.72662238477592       -0.57788222062698
C            4.53854180481406        1.33453612794198        0.06452729753865
C            5.15889775096003        2.46166347135534        0.88977800430506
C            6.46104914472562        2.05143273777770        1.57623669871683
C            7.06484323596114        3.17000488823156        2.42302067528176
C            8.32605327576183        2.73919293923501        3.16861195516860
C            8.91757424174542        3.84600047895962        4.07696801320065
C           10.15046888043513        3.31221298058987        4.84813072945781
C           10.79121677325337        4.34831397054992        5.76903616771251
C           12.00707262819157        3.80850145176710        6.51920555620234
C           12.64211414553997        4.84293803077437        7.44762035308893
C           13.85898401215032        4.30233503354439        8.19788797083475
C           14.49668901513496        5.33456945672647        9.12743321935928
C           15.71703200155801        4.79357768230409        9.87384478348724
C           16.35231275749856        5.82642058468564       10.79112971994276
C            9.28263688214810        5.08823419421250        3.26216458818755
C           10.18181038057061        5.23787687946737        2.23080590656608
C           10.34417931441389        6.49290207971563        1.64346000629657
C           11.28271053820303        6.69303319570826        0.54644505705275
O           11.48184356325308        7.73835700172678       -0.01299184838451
C            9.59679352247363        7.57453523848388        2.10936653184157
C            8.69646417123303        7.43177081609882        3.14124206125763
C            8.53829633647608        6.17960554409041        3.72300146219369
C            7.66164196546206        5.74259717209390        4.81080959327025
C            6.72506750598392        6.45054894765370        5.55366638726411
C            5.98953274141610        5.78395376861691        6.50683117649508
C            6.16153530599181        4.41088254173576        6.74498154965489
C            5.32633517132299        3.75325279191335        7.73309771201990
C            5.34571426361681        2.43889373179564        8.01669865725701
C            4.48237742690539        1.77211281378189        8.97284929164089
C            4.67369394404782        0.41267246610941        9.24231220205431
C            3.86589886666126       -0.25447927779474       10.12844109926927
C            2.82581239423436        0.40388515045056       10.78414110994072
N            1.97676104655006       -0.29348522498793       11.69788891652000
C            2.49168078094887       -1.38332168361997       12.47853823006184
C            1.71475594585550       -2.51371275492205       12.71922251831303
C            2.20703754604358       -3.55759486287348       13.46980609564444
C            3.48311887929666       -3.49128420951518       13.99479040659388
C            4.26506060284182       -2.37544728453684       13.76744081901406
C            3.77496587216870       -1.33038640875281       13.01712967224717
C            0.59794320509827        0.08389139863761       11.83658440488039
C           -0.02083858064943        0.06928516414209       13.08404732180143
C           -1.34426013882396        0.42527593898972       13.21565562087731
C           -2.07419348886917        0.80098308489882       12.10461516277763
C           -1.47533710251428        0.81831837161893       10.85993316971762
C           -0.15219831724345        0.46255452731432       10.72581412475723
C            2.63130251284494        1.75926885925953       10.51864824204546
C            3.43950841390505        2.42957258391781        9.63464356915205
C            7.12012735180209        3.71462568606533        5.99744912640385
C            7.85673888618225        4.37752168792286        5.04326481065662
H            0.83181031424679        0.18424922247718       -2.62968446600426
H            1.39076354079026        1.85246943371579       -2.70868980113316
H            0.53158999751092        1.28312673336678       -1.28656221593045
H            3.29924386888307        0.28043424910331       -2.17573503914844
H            2.44734709722846       -0.28338659426716       -0.76496352057048
H            2.50324915396842        2.04434367589019        0.20024782035987
H            3.35101269291864        2.61125427083377       -1.21039945606839
H            5.24420876584879        1.01420279099176       -0.71168748408131
H            4.39335467500743        0.45163511829175        0.69903909479965
H            4.43922134636787        2.80299547050727        1.64395140306809
H            5.33669859915059        3.33493546428189        0.25041301753681
H            7.18923053642610        1.72046418498187        0.82575539889841
H            6.28109076071607        1.17178158918185        2.20644500589568
H            6.31786641531560        3.52597652560262        3.14284915880819
H            7.28531816962656        4.03870075654960        1.79093984809912
H            9.08948591738173        2.41745614597604        2.45320694714386
H            8.10565237094840        1.86002127277512        3.78261537768541
H           10.89088343444033        2.95156867572740        4.12697801063016
H            9.85215719396291        2.43510812678546        5.43128325229229
H           10.04694330715108        4.71340906791696        6.48707060995585
H           11.07982400025455        5.23149259890048        5.18634062568364
H           12.75397387775756        3.45015675999816        5.80023428957248
H           11.71924941227451        2.92171972593751        7.09708404722171
H           11.89476013942318        5.20120100263342        8.16610528675047
H           12.92903351425247        5.72980789949359        6.86948506471001
H           14.60532880345409        3.94413954171287        7.47828644824848
H           13.57140104506897        3.41489058668913        8.77487219631728
H           13.75142070618270        5.69124923844579        9.84892466171294
H           14.78179872200185        6.22294543848473        8.55067016030008
H           16.45475336037715        4.42990021146169        9.14616700500812
H           15.42530124878408        3.90496324700629       10.44941536842421
H           16.68141745669646        6.70323300745797       10.23028339556206
H           17.22254438051949        5.42818262391629       11.31785631860652
H           15.64348086814134        6.17440922016665       11.54486123298647
H           10.75205832349146        4.39611554827269        1.88261165322042
H           11.84901369511614        5.84084022544176        0.19893583395631
H            9.74126473433465        8.53193490949833        1.63841975461560
H            8.12030660015978        8.26698936626037        3.49840745632011
H            6.57917830063634        7.50053768848503        5.37035776286598
H            5.25379942870512        6.32042575209196        7.08130877825295
H            4.63516990729141        4.38358853315606        8.26142533145308
H            6.04481556286770        1.81050137647641        7.49643938432064
H            5.46800647994914       -0.11234281051851        8.73964681865630
H            4.01465635382815       -1.30352655133778       10.31551749543078
H            0.72438445346928       -2.56165652461067       12.30119733370482
H            1.59605775025139       -4.42776937097724       13.64657147068420
H            3.86779559593823       -4.30970637141329       14.58123033716291
H            5.25981635799281       -2.32122594955190       14.17889564838413
H            4.37440173184289       -0.45352458025806       12.84467880018120
H            0.55568097927897       -0.21800423289817       13.94599600307501
H           -1.81068303990711        0.41107039925331       14.18724208889833
H           -3.11009953959792        1.07981291679227       12.20877520583219
H           -2.04399286823353        1.10955428260456        9.99183744054648
H            0.31773577325138        0.46261277025626        9.75777644928012
H            1.83812562799910        2.27751132752563       11.02859733894355
H            3.25847721727598        3.47192210307643        9.44296035486446
H            7.28440010578076        2.66465923493458        6.14840618590431
