130
 energy: -23.560415566293 gnorm: 0.000396345534 xtb: 6.6.1 (8d0f1dd)
C            1.44260121372891        1.51628748780705        2.04918820898432
C            2.70289679782996        1.37906558398293        1.20950097455304
C            3.36339820934019        0.00781133710554        1.35593997314754
C            4.62908264310698       -0.14295525822975        0.51208491500811
C            5.27810883160302       -1.51852802085036        0.65836971402982
C            6.53694768383447       -1.68501076664589       -0.19209485824476
C            7.16325457137509       -3.06989761596183       -0.04555105870725
C            8.41015050820298       -3.26597508303544       -0.90547325021067
C            9.02795898830428       -4.68375468901096       -0.78302904743569
C           10.27372210072813       -4.80256899324857       -1.70605333156995
C           10.75024461141097       -6.23532364539458       -1.97265882278145
C           11.69070132737069       -6.32705088369990       -3.18161903647185
C           11.80503616726765       -7.73923318282769       -3.75981317850726
C           12.63304377730020       -7.78808276228500       -5.04631203853514
C           12.62076393830051       -9.15869072103265       -5.72464972658849
C           13.42845327897721       -9.19199996351880       -7.02504926439464
C           13.31477032844522      -10.52002686442415       -7.75700953643080
C            9.34145015578181       -4.99568339059157        0.68130120199594
C           10.25096763407212       -4.41427825406654        1.54084874414613
C           10.29935247305483       -4.84331338045432        2.85535860955645
C            9.44600047852986       -5.83777196041558        3.30811919156367
C            8.52840592332075       -6.42042899625909        2.45763496527652
C            8.47115101088299       -5.99124901763286        1.13824158978575
C            7.64475098019469       -6.46468237441669        0.02096819514784
C            6.76404944238940       -7.54004135994500       -0.05712301956992
C            6.30094983133052       -7.93491188861793       -1.29342410956090
C            6.71293173754820       -7.27807395309213       -2.46031623579628
C            6.54616822051797       -7.89700214893004       -3.77211114599176
N            5.59839040548509       -8.76288304396928       -4.14727064121049
N            5.89091334676647       -9.19019842945755       -5.33819364650065
C            7.03282392565213       -8.60835631554317       -5.72302696673084
C            7.80311842084478       -8.91104910626692       -6.91983432803332
C            7.38841188137645       -9.86573857103426       -7.84503512346250
C            8.22112799903016      -10.24479949227434       -8.87135299481549
C            9.49501950346794       -9.69330035942710       -8.99514315068146
N           10.43869249929661      -10.20939594497412       -9.94580792632062
C           11.42131241131774       -9.46521687145081      -10.63641776316855
C           11.63955697873154       -8.09303587263672      -10.73509805729953
C           12.72553055341348       -7.64300334057276      -11.44492671854220
C           13.62323293861209       -8.51961611865188      -12.08108847489161
C           14.83054189846270       -7.94230110574983      -12.83571127135535
C           14.33445161989238       -7.01592547581269      -13.96083580979774
C           15.70850513463047       -7.14457958461997      -11.85405549305723
C           15.69402312346194       -9.05220928045706      -13.46642447186901
C           13.39450869120557       -9.88031094769227      -11.99696339123961
C           12.29563973892355      -10.35390574309211      -11.28018652478088
C           11.84309644390968      -11.69183802313842      -10.98713425863237
C           12.35220869787557      -12.94368152025776      -11.33404563574690
C           11.74198023294256      -14.08864488872278      -10.85655073888034
C           12.25193063963052      -15.49399183901999      -11.21104982961685
C           13.47754239397639      -15.43858830413163      -12.14355730327775
C           12.65674798719854      -16.23035733302428       -9.92094975371373
C           11.13425278235897      -16.27539449353921      -11.92612609348367
C           10.62308676450755      -13.95602685877987      -10.01465508725257
C           10.11115430629379      -12.73159907082247       -9.66260864962784
C           10.71350006408439      -11.57922796402344      -10.16257009820897
C            9.88370584917760       -8.70308644431525       -8.09795034501339
C            9.05259560963778       -8.31933161441537       -7.07648728469496
O            7.45455280192492       -7.73484835855001       -4.77218433713095
C            7.52643080485209       -6.14884954129009       -2.36391032801064
C            7.98712185177465       -5.74849495947985       -1.13152747716615
H            0.97860165346501        2.49888635291786        1.93692048412575
H            1.65753194524075        1.37410405434035        3.11005549373927
H            0.69845484845326        0.76807649624235        1.76936390059067
H            3.42537079578459        2.16056896225869        1.48036177009450
H            2.47355636040532        1.55978136508260        0.15080002566481
H            2.64578436549623       -0.77657638049198        1.08545018412844
H            3.60033180951580       -0.17617390372064        2.41110361183212
H            5.35064274496022        0.63699443131200        0.78454598237809
H            4.39319316180627        0.04287210827595       -0.54293255940380
H            4.55178266456096       -2.29691199626949        0.39396613670569
H            5.51934916132163       -1.70218229341145        1.71257803900190
H            7.27130708535247       -0.91557915532829        0.07595841440013
H            6.29807024414374       -1.49787356358290       -1.24620504034324
H            6.41978955979905       -3.83527805885817       -0.29950448675434
H            7.40881371018089       -3.25296382917917        1.00758363038150
H            9.16763603923717       -2.52277485736969       -0.63681876104877
H            8.16422721996354       -3.07607693583430       -1.95521861770357
H           11.09047286855657       -4.19634134374583       -1.30214001054914
H           10.01786834901320       -4.33968610510050       -2.66532128627696
H            9.88125056882135       -6.87532948095118       -2.16289935557155
H           11.21804380255319       -6.66134398589977       -1.07697375333003
H           12.68254645214254       -5.93738051860212       -2.92221294034331
H           11.32308795665894       -5.65901716325158       -3.97073300300665
H           10.79963800301415       -8.12854618631969       -3.96368634995156
H           12.22809573969181       -8.41966851487504       -3.01125356059449
H           13.66583494443769       -7.48569472970227       -4.83453526716559
H           12.25597857355150       -7.03519075671674       -5.74963439876916
H           11.58489793697199       -9.45536124028852       -5.92948842725206
H           13.00032017610189       -9.91977795965268       -5.03219912045865
H           14.48069408730993       -8.96707560404833       -6.80557961467043
H           13.09950260507571       -8.37413587067363       -7.67951840802197
H           13.68266014997059      -11.34397203330921       -7.14298044735510
H           13.88214613912956      -10.52486184577506       -8.69056792845350
H           12.27614663515175      -10.74454737231330       -8.00618684653720
H           10.90294960311894       -3.63536558894669        1.18561372252079
H           11.00815293346235       -4.39824181705348        3.53450404975298
H            9.50105643162757       -6.16137984523575        4.33479227235903
H            7.86701394702072       -7.19769763731265        2.79816674821925
H            6.50551198047527       -8.08629453945169        0.83293848192653
H            5.68207269255668       -8.81059674075967       -1.38680958220635
H            6.42222733950695      -10.32393235945522       -7.72314990523139
H            7.90159427296271      -10.98271955598081       -9.58616744240019
H           10.95614133958833       -7.40697452558608      -10.26774372925355
H           12.89844688049803       -6.58331612722686      -11.51586554645137
H           13.76639299353643       -6.17637659334634      -13.56241261410401
H           13.68913218490310       -7.55987948896749      -14.65020548957213
H           15.17111592210335       -6.61118226452901      -14.52993124660307
H           15.15924252745507       -6.31134852854105      -11.41766902182659
H           16.58575545532799       -6.73822420533238      -12.35703739608545
H           16.05156379210838       -7.78220726993380      -11.03950494295772
H           15.11806587282524       -9.63855387087013      -14.18198486432635
H           16.08751890852347       -9.72437328059586      -12.70419983903881
H           16.54383691152719       -8.62533032716613      -13.99880516396477
H           14.05247885017048      -10.58883872321772      -12.46305867905133
H           13.21889467899020      -12.99306735750858      -11.96541794232057
H           14.30691877460834      -14.91286455700183      -11.67101387404786
H           13.23589272996065      -14.93529241878387      -13.07943195666453
H           13.82189201903166      -16.44303823659583      -12.38924426202530
H           13.43423351152740      -15.68000077844840       -9.39160040167033
H           13.04008984305058      -17.22580153431944      -10.14417631907928
H           11.80924001499408      -16.34415989446944       -9.24632770436782
H           10.81884301101248      -15.75482039723451      -12.83006005522763
H           10.26073424724843      -16.39359065738078      -11.28635007585878
H           11.47485272687656      -17.27055659933863      -12.21124672877885
H           10.15492636781198      -14.84580456561746       -9.63119685753176
H            9.27101883579260      -12.65262484687504       -8.99699052741441
H           10.86525785562921       -8.27441779326744       -8.18575431701946
H            9.37096668502609       -7.58680359409504       -6.35451839210682
H            7.86992835597423       -5.66162796351522       -3.25866652026743
