130
 energy: -20.050908451844 gnorm: 0.018457928078 xtb: 6.6.1 (8d0f1dd)
C            2.14337046146208        0.71388755392126       -2.51008015876219
C            3.42992004183377        0.36629042581652       -1.77785795502906
C            3.79337599916774        1.39018455327977       -0.70175170130855
C            5.07423635839907        1.03615755850532        0.05367578401560
C            5.41906201105557        2.04715427712829        1.14633823127490
C            6.67703435459946        1.67731657464390        1.93140553291105
C            6.98596413328241        2.67136791533562        3.04851099557341
C            8.20734061244556        2.28514878338190        3.87968396106864
C            8.48499811427813        3.25875928048192        5.05288174050270
C            9.69981626045347        2.77226501250651        5.88077000868030
C            9.99860996114051        3.63721417428322        7.10272243842596
C           11.17534442935051        3.11317989846748        7.92320139679450
C           11.47282680962109        3.96508354257248        9.15604756005686
C           12.66238936344254        3.44510582674713        9.96239614273676
C           12.98173433718398        4.30701549116303       11.18319787118181
C           14.18849363412094        3.79880396868103       11.97339136982825
C           14.51537048814930        4.67070140872742       13.17508952486578
C            8.69629224588296        4.68362368321423        4.53485465503046
C            9.67456068425845        5.19646809110120        3.70736655736877
C            9.63271997384678        6.53819132834494        3.37194267331974
C            8.62590549133333        7.35907435617445        3.85672563510254
C            7.64296807982894        6.85503329960842        4.68400228251629
C            7.67823780948243        5.50873372940166        5.02214108803462
C            6.78284086378884        4.72266814197064        5.87710783926660
C            5.64623539764057        5.10351399447084        6.58077812873881
C            4.98712433063308        4.16189620972844        7.33736068336739
C            5.44809672625241        2.84461411634747        7.41406971264015
C            4.78544704394570        1.87606140038493        8.27461045196489
N            3.54828549334587        1.99791999674153        8.76961320696826
N            3.30585789751850        0.96391914984735        9.51364556592881
C            4.39216766867478        0.18381639707232        9.51424223602645
C            4.55402430556032       -1.04407695183245       10.28663717808841
C            3.42523615132110       -1.66106431982470       10.84183654485928
C            3.40879261666701       -2.67729349589626       11.78304555565052
C            4.42853334356959       -3.01814955362132       12.60772862898149
C            5.48696135757835       -2.26389324695646       12.91451417276811
N            6.48225163334782       -2.59569576574085       13.59816033577577
C            7.48511630453069       -1.76765093895579       13.89475351734526
C            8.56689069737497       -2.06666063315875       14.69181963293444
C            9.53615447783726       -1.17027679338860       15.00016065646203
C            9.61635157981532        0.19782218880676       14.56907485413505
C            9.90648586305547        1.17281583277820       15.62451439862847
C            7.41425664578342        9.10366450960945       17.01789905000838
C           10.28624749207810        0.41707831498293       13.32316191637973
C            6.00036541279326        5.87189791987107       14.57137692471644
C            7.93190868308092        3.00312685581277       10.43015363960575
C            7.92088232917746        1.74645428569914       10.83872769624870
C            7.23864712910439        1.22724943809732       11.85823438292547
C            6.42035724862246        1.86567966227282       12.65947659351294
C            5.68905759682094        1.33396388174432       13.77397059741505
C            5.21391459886476        2.34164662503894       14.72300339500774
C            2.96980080562571        6.61181233608897        9.08895681610003
C            4.70358546205762        0.30152903504481       13.44737378271430
C            0.99360499181960        3.09276389996870       10.65867040242594
C            0.69388746416238        3.17579434727637       11.94729972338859
C            1.43659200335532        2.66472556829915       12.90198289011287
C            2.45614380957652        5.56710678896095       14.97867028778981
C            5.79767795744300       -1.55078262369648       10.40719897560350
O            5.35686574091875        0.72495078415615        8.72178615383632
C            6.58465169666320        2.46907839047900        6.69975400257067
C            7.24382739200831        3.40365284665966        5.93608161827907
H            1.89323408914771       -0.02520808122678       -3.27470226972091
H            2.21980224195526        1.68444442213995       -3.00402651812917
H            1.29933698721304        0.77027457249464       -1.81989490408301
H            4.26044557084945        0.27916359701274       -2.49113310217945
H            3.34589546623007       -0.62760956812471       -1.31817348408714
H            2.96294130226762        1.48643252764221        0.00860495699760
H            3.89482861172322        2.38361143516582       -1.15584663577975
H            5.91015600892556        0.95389676978625       -0.65181747313784
H            4.97523268593104        0.03722144515417        0.49601606842442
H            4.57224410489955        2.14236364655605        1.83717325213468
H            5.53860397365836        3.04404502836398        0.70457854202893
H            7.53397854850329        1.60453181913321        1.25053371087861
H            6.56294756148015        0.67228602686087        2.35601837927499
H            6.11238492962520        2.76277869488904        3.70526867631118
H            7.12753624296974        3.67328536484714        2.62530394788048
H            9.09329508009053        2.23412070180623        3.23885966141688
H            8.07305357977723        1.27604221654695        4.28227015135295
H           10.58002044599074        2.73031556153792        5.23120931388816
H            9.51860594609617        1.74074048914068        6.19987480816435
H            9.10667259883505        3.69875917291622        7.73804289914315
H           10.19449845172756        4.66912699341014        6.78699802912589
H           12.06902419510852        3.05693609410128        7.28926299307481
H           10.97812951791579        2.07862876480516        8.23024632028844
H           10.58374877524524        4.01180047610414        9.79661809182755
H           11.65902181244424        5.00195306701434        8.85050106529586
H           13.54580275456305        3.38434450861672        9.31476004992055
H           12.47016256464134        2.41261065848096       10.27924547865041
H           12.10418483869198        4.35703118664818       11.83947774987726
H           13.15952827617158        5.34202084420526       10.86606246020470
H           15.05801672002675        3.73576054069292       11.30542189199632
H           14.00250422629702        2.76512707906616       12.29452971060493
H           14.73864577779676        5.69510305849137       12.87062565542970
H           15.37926530823637        4.29801378805678       13.73028659547500
H           13.67433358971852        4.71763301190841       13.86943405950398
H           10.45156434947601        4.55337140769073        3.33190022046825
H           10.39133742942323        6.94920664436235        2.72571451044809
H            8.61054460831886        8.40236129994045        3.58614315744821
H            6.85854356959052        7.48390524803807        5.06745508474060
H            5.29905932587473        6.12035814608914        6.53070148696269
H            4.10726930530319        4.42997308874346        7.89550554271211
H            2.47458881874901       -1.30986731314437       10.46972593876589
H            2.47850054947264       -3.20635886647875       11.92982821490529
H            7.43811122435207       -0.77269932611356       13.48203904811681
H            8.63863037881430       -3.05632956997408       15.10954262949570
H            8.65495088602051       -2.31084381992512       11.23914880434353
H           10.90596608928674        1.07650439347056       15.99978786470777
H            9.20772414402078        1.10872981488658       16.43608527153449
H            6.85948802488719        9.11888737026279       17.87945365062545
H           12.44371123970244       -1.16173724139637       15.03527987591777
H            8.56549979920977        3.20380309500960       13.80478597522571
H            9.89013959354729       -0.17116858177818       12.54552553561150
H            3.69268620673104        4.41439106629148       11.90945570383410
H            5.78161869055501        4.64010525958768       11.95002058244929
H            6.43884657083538        6.66981943593551       15.03496851822955
H            3.75066756009595        7.12399649729295       12.40839245133423
H            7.89317779872308        0.43974788371744        8.60267695793043
H            4.43632228696860        2.95043933548767       14.30626817865444
H            6.00775931983057        2.96782955659500       15.07889640891251
H            2.01665054669601        6.37872249543979        8.79360347844160
H            4.86973829493491        2.55318652767983       10.71144834632613
H            3.11451525961212        1.07695397783611       11.76935940470413
H            5.12432898361554       -0.52335508798400       12.90604094088008
H            1.14560267901906        6.29675704460030       11.85154487459471
H            4.20232367395619       -0.07211135338962       14.31701599774759
H            1.82168152922937        2.56111728035582       10.28692520992437
H           -0.21647178699975        3.69424894369315       12.22508163103552
H            2.08071736534873        4.94779677277739       14.27355960393516
H            6.64153019233365       -1.07197116955394       10.00910405180960
H            6.93647284710325        1.45511452235085        6.74475694186443
