124
 energy: -23.178905110420 gnorm: 0.000525154890 xtb: 6.6.1 (8d0f1dd)
C            1.97788002367774       -2.61310227975674       -0.44916079030927
C            3.27618374700645       -2.02998185773386       -0.98360289375078
C            3.75644836799167       -0.81800390344564       -0.18402902622871
C            5.05387498224816       -0.22037247836608       -0.72793837243092
C            5.54268102471801        0.98560167085290        0.07391991780624
C            6.83056994540703        1.58912410749515       -0.48582158644598
C            7.33236873380406        2.78781327396379        0.31889977408304
C            8.60890865089071        3.39871559077501       -0.25849657575780
C            9.12825960356013        4.58486453978217        0.55346346316368
C           10.38688027391204        5.21025707050036       -0.04680274638539
C           10.92434522326341        6.38122531828187        0.77510473721604
C           12.16128820575629        7.02342418354428        0.15074079052477
C           12.67602521987260        8.27213328826168        0.89072455819646
C           13.15110568772829        7.95908674368370        2.33637264146595
C           12.08266723516569        8.21927557698910        3.40731888786534
C           11.86253964229045        9.71112412927056        3.67908021679188
C           10.54996071092005       10.01269983608930        4.40079431227185
C           10.30222263442436       11.51319970025524        4.57281044010959
C            8.86241762608779       11.84354046714201        4.96429118321816
C            8.57518470805745       13.34556661946480        4.96605018979511
C            7.08982385806542       13.66892515039147        5.12809492711234
C            6.79041930584549       15.16637597964937        5.04640491862601
C            5.30126128289008       15.47203564079573        5.08139269568249
C           13.77755615028623        8.96186745030522        0.07733739276606
N           14.25639780352829       10.18874528479799        0.71902785158050
C           13.44896940432226       11.31450414990353        1.01251242591724
C           12.11960984528994       11.73065254019592        0.81283599912051
C           11.62065120043983       12.87034805252430        1.44743442569689
C           10.20499080232121       13.15080162356135        1.30092981903314
C            9.63740472881138       14.37831323283978        1.26432911515299
C            8.23645975268218       14.65137946720197        1.32323478884950
C            7.23831634155959       13.76161201990261        1.56830727255367
C            7.44878474368355       12.40202197692109        1.78031001129178
N            7.67760533772199       11.27704222907439        1.97397427786528
C            5.93938206289996       14.24265532431019        1.71185817294377
N            4.86802953053649       14.66809032295961        1.87642182699912
C           12.45931901752351       13.65387656724891        2.36810492378096
C           12.02938801886453       14.71530530417302        3.17231476209321
C           12.88551788871930       15.31854677586787        4.07238291571850
C           14.19270569837103       14.88578176224367        4.25102920533973
C           14.69099955310992       13.81753646239599        3.51722001504120
C           16.02129418240900       13.19192190316591        3.72940307254404
C           16.96926444748264       13.62510431001208        4.64668651295458
C           18.14801287525693       12.91522726320911        4.83603713243560
C           18.42489474988514       11.74923060381332        4.15029592063127
C           17.52082834856500       11.24197286990376        3.20721502389682
C           17.66233160318789        9.98441662577006        2.45768345545544
C           18.84689670385572        9.20004280195820        2.66408712750809
C           19.17081182053100        8.02856921202780        2.07522638936589
C           20.36733988941624        7.28877969004635        2.32992216512969
C           21.36751242027553        7.60887384334505        3.19424188470348
C           21.36443788975177        8.75433460737539        3.98686064792332
N           21.28412945665756        9.73246909961736        4.61383685147701
C           22.45498122591844        6.74444594885988        3.29777117668410
N           23.35135539266806        6.00430731314400        3.36696758018965
C           16.66094652653321        9.54578653627447        1.58984298530452
C           15.50187259125854       10.31549959985483        1.38024590594159
C           15.43932732783750       11.52222057115454        2.07625805079926
C           16.35770745917968       12.01226395042102        3.00758618415708
C           14.21523011040880       12.12127869661675        1.85471477336003
C           13.79536616557939       13.24903133261453        2.56622821654703
H            1.64860234383520       -3.47940871936796       -1.02698764492568
H            1.17333652003982       -1.87603395783900       -0.47612088420489
H            2.08649228390499       -2.93292298570120        0.58868672084965
H            3.15591203043194       -1.74422861604570       -2.03683124933982
H            4.06214632509852       -2.79660631392537       -0.98609601841095
H            3.89247981882582       -1.10019795248968        0.86685737561928
H            2.97358524682883       -0.05017515376122       -0.17341210200304
H            4.91420700886403        0.06787841350995       -1.77670245557635
H            5.83442078887890       -0.99038288345563       -0.74620642449597
H            5.69537457957847        0.69537095745099        1.12029182621797
H            4.75885545931830        1.75194892254916        0.10216611306707
H            6.67334650504152        1.88685069522817       -1.52950111914648
H            7.61095828228744        0.81960192900203       -0.52427366799509
H            7.50492075921379        2.48717990027964        1.35926667475028
H            6.54817451866167        3.55270223906175        0.36935320362309
H            8.43001606838211        3.71224171298935       -1.29401718101235
H            9.38781423518493        2.62960893751991       -0.32484732434535
H            9.32907685607242        4.26709785028548        1.58361630623999
H            8.34346649119559        5.34617020741670        0.63776703603774
H           10.17808675311627        5.54413187887414       -1.07024041853222
H           11.16579683728090        4.44534485284454       -0.15026302556505
H           11.15365672240246        6.03499940875627        1.78915065171816
H           10.13827084029531        7.13642388996963        0.89468021274643
H           11.93847890000034        7.29049887655547       -0.88895123472618
H           12.96951874638408        6.28681368099580        0.08795729542428
H           11.83650643748330        8.97958247322098        0.96581797128088
H           14.03131982785716        8.56829158349527        2.57023540867215
H           13.50455447975279        6.92206985419320        2.37781999994014
H           12.34120114349991        7.71392146110028        4.34658633368269
H           11.13500404656193        7.76874014095158        3.09410738485411
H           11.86682708518724       10.25414799459148        2.72979371299460
H           12.70984606184024       10.12504402289527        4.23905548180331
H           10.52342076367935        9.50791067430006        5.37354424667636
H            9.72165588850562        9.57724740233758        3.82818137033997
H           10.53469054411949       12.02111645944146        3.63089867235299
H           11.00470651281334       11.93602509546298        5.30090864138116
H            8.62543374281313       11.40948417522548        5.94263687861188
H            8.18044554929565       11.35100519217564        4.26034852497178
H            8.93564765965098       13.78230290613015        4.02734923757734
H            9.15871975544018       13.83933037475418        5.75202219275191
H            6.72096371186448       13.26467088406891        6.07807584738795
H            6.51735735191638       13.14305650346237        4.35441917704258
H            7.23216053126378       15.57273463313721        4.12715794105118
H            7.30707173823632       15.68617879633917        5.86361042309367
H            4.78519290972624       15.00707000830423        4.23933063322182
H            5.10175490608319       16.54440116343483        5.03320894533725
H            4.84028577393992       15.09155469899927        5.99424050558500
H           13.42191150295734        9.21543760496375       -0.92465234917380
H           14.62282503539128        8.28313978822155       -0.05405908714646
H           11.47500604732822       11.14701463968942        0.18239013900765
H            9.56444236323536       12.28816370287218        1.24536443172531
H           10.29806861900478       15.22574908044918        1.18479116353254
H            7.93772926147437       15.68142757122952        1.21304242428919
H           11.00761634616295       15.04193846200234        3.12017538780025
H           12.52149090977969       16.13719097751973        4.67135565517781
H           14.81765556255445       15.36296324569551        4.98449007700252
H           16.78337794595082       14.51475075655391        5.22131586873425
H           18.86450109216262       13.27861415787350        5.55459153927164
H           19.34333226693297       11.22867861950898        4.35852956258763
H           19.54359197299680        9.60317179902739        3.36770214032829
H           18.48642517658666        7.61273103025440        1.35720863928623
H           20.49568745594078        6.37141902656600        1.77795210046267
H           16.75301133407670        8.60993957690626        1.07453218628554
