136
 energy: -25.021678898754 gnorm: 0.000446376325 xtb: 6.6.1 (8d0f1dd)
C            1.06780865389581       -0.16869541646013       -1.42268433258816
C            2.58506175342018       -0.08056020936569       -1.37554987004469
C            3.10275714641612        0.48253677277121       -0.05158526700956
C            4.62695517383954        0.58553008244700        0.00284066071932
C            5.13530042170578        1.15876337666179        1.32502979372063
C            6.65830154226239        1.27223522869784        1.38681043947682
C            7.15238435891466        1.86042476286025        2.70772960983725
C            8.67359068060567        1.98796197658026        2.78203060276718
C            9.14783640479783        2.58466298359180        4.10617661323017
C           10.66649878806217        2.72719282053519        4.19940022271991
C           11.11316787556073        3.32353846958578        5.53319449261502
C           12.62820341188824        3.46371871656593        5.65857548302889
C           13.08987742544473        4.14775058087295        6.95860424500318
C           12.64665619820785        3.37840120637490        8.22989771510902
C           11.34905564434297        3.89879429285556        8.84841117030080
C           10.88830175884435        3.06658885779765       10.04377162589230
C            9.55383636809119        3.54034706294464       10.61814654429950
C            9.05496655282040        2.66861620306603       11.77011378710558
C            7.69852157553040        3.11771806318804       12.31284343530220
C            7.18075094298644        2.22680990107900       13.44178179870661
C            5.81442807587622        2.66517726073639       13.96879811342875
C            5.28840311987213        1.76827584142895       15.09024083782352
C            3.92230516904776        2.20157418946197       15.59833702502390
C           14.60588540924970        4.36273682287654        6.95747500570753
N           15.03628233076683        5.13049323012947        8.12748873300384
C           14.71569842072429        6.49130543786761        8.35251012273247
C           14.09044359232446        7.55595662877310        7.67568315496521
C           13.91854365690174        8.79605962292689        8.29412738846024
C           13.34821717928022        9.86317083300805        7.49440502155116
C           13.63724505151896       11.17658340611757        7.60431356081385
C           13.05766938393269       12.17711798885081        6.77387924206843
N           13.36709239356450       13.44417108150708        6.86032220866272
C           12.66771935210701       14.20654374048733        5.94330843648145
C           12.77980618014194       15.59569120901731        5.78583591944694
C           12.02411464639807       16.23203643276642        4.83334857050006
C           11.14674143359412       15.51382292163009        4.02142770552996
C           11.02287213017309       14.15188498168252        4.16013382280651
C           11.78261586964786       13.49690660276290        5.11955721107087
S           11.85278745244436       11.81074744909516        5.53105034534205
C           14.30307698956077        9.00220271853071        9.69907403969861
C           14.04103218930777       10.13823390640069       10.47440912287455
C           14.42473259698036       10.19737164759140       11.80021131346348
C           15.05799671468593        9.13611865503209       12.43637621348123
C           15.32339464762073        7.95809123375568       11.75156899418525
C           15.90705081196570        6.73201223300446       12.35697062623252
C           16.30464867901120        6.60603735206907       13.68092536501636
C           16.78470861728683        5.39420139275060       14.16411336244873
C           16.87676834895503        4.26730914444849       13.36983372143369
C           16.49673787991437        4.30700554179023       12.02208773349699
C           16.50351433860257        3.17608178726432       11.08290037211594
C           16.96104916897865        1.88949411167821       11.54315365468410
C           16.97870707479951        0.74481506113516       10.83050920985659
C           17.46066718081117       -0.48286731614415       11.36600680993278
N           17.48265686589001       -1.60261028368723       10.69216321780321
C           18.01039375473324       -2.63870529371525       11.43992407073903
C           18.17872264163814       -3.95855564567458       10.99631702554327
C           18.72524707212464       -4.89186324169316       11.84100102216635
C           19.11449557959071       -4.54322799283469       13.13395719836715
C           18.95738037950273       -3.25520342715693       13.58754744228350
C           18.40647563621555       -2.30206251332053       12.74221408392842
S           18.08745638894942       -0.61649159260964       13.01515038631958
C           16.06385755899906        3.33125426032284        9.76727426805935
C           15.61679018498970        4.58126720126269        9.29749175508897
C           15.65454419978498        5.62193112122886       10.22166956192583
C           16.04352429569144        5.55910639605196       11.56070355875779
C           15.12488054292741        6.76418233799885        9.65544140299406
C           14.93626596984878        7.94276764868371       10.38057466601978
H            0.70860812243167       -0.57086335365156       -2.37271817032973
H            0.61100956662326        0.81375631861199       -1.28864630237247
H            0.68474906149172       -0.81183789156521       -0.62805981504539
H            2.95357861175451        0.54092687638831       -2.20258014164351
H            3.02754740121093       -1.07101570055019       -1.54644685242215
H            2.74584115080538       -0.13989496835240        0.77816920240154
H            2.66118163310224        1.47103928258032        0.12499424081736
H            4.98481418398506        1.20449925084177       -0.82901197111788
H            5.07074925655255       -0.40320647556780       -0.16620264572362
H            4.77841826328715        0.53875409796060        2.15660162428109
H            4.68665931285679        2.14543281294530        1.49389800302704
H            7.01705104818785        1.88674689900549        0.55206895781444
H            7.10987744822218        0.28514678928309        1.22916872513249
H            6.79401045616944        1.24411703676125        3.54145037496331
H            6.69389601294659        2.84447187947169        2.86526546709968
H            9.03453349710182        2.60323421588409        1.94884940555959
H            9.13567873391916        1.00455388165920        2.63224472981912
H            8.78562924539655        1.96717281268922        4.93745028540500
H            8.67808595915906        3.56460561210045        4.25613204226254
H           11.03262738001554        3.34872971292829        3.37322214373459
H           11.14042770927981        1.74881784987239        4.05370361600438
H           10.73028191381867        2.69815458540799        6.34791021930072
H           10.64104177168929        4.30389719609117        5.67161359001778
H           13.01256755214333        4.02473725103660        4.79850067118099
H           13.09761041262107        2.47621335248890        5.58873676118465
H           12.62259388643149        5.14466376056690        7.00137615678284
H           13.43737640776998        3.43527867519498        8.98619856233175
H           12.55855534193956        2.31076009234469        7.99900313272013
H           10.55380518344616        3.92467722174221        8.09585616489506
H           11.47972026610254        4.94457033359387        9.15356901204151
H           11.65761877749539        3.08086248399104       10.82552113185713
H           10.80466002071130        2.01433584004927        9.74538559058676
H            8.79956178574945        3.55978266968373        9.82180843693165
H            9.64252775910243        4.58160303978738       10.95132211647417
H            9.79558307638450        2.66442392698819       12.57911648764389
H            8.98966127472906        1.62500587209730       11.43859692683974
H            6.96557909517872        3.13869208567815       11.49694090748575
H            7.76544422811703        4.15550070490200       12.66161631918432
H            7.90699195571776        2.21272097328922       14.26363838585821
H            7.12450306477583        1.18802552428235       13.09390189377722
H            5.09133507161632        2.68457983179073       13.14415001682774
H            5.87068129924575        3.70226093464490       14.32160880865909
H            6.01300088096367        1.75649632168437       15.91534445827275
H            5.24720730753832        0.73006046274449       14.73462685126447
H            3.95106371251955        3.22074086182861       15.98845511925923
H            3.55693741799280        1.55388877106475       16.39858349115780
H            3.17987294712198        2.18464351236508       14.79813411630042
H           14.92578924273801        4.89500695843285        6.05785143120550
H           15.12318089023944        3.40078614850079        6.95481117432447
H           13.78083157322210        7.41691044384601        6.65653746909162
H           12.68658324373980        9.57083972106809        6.69699697242872
H           14.38212311833605       11.50121241067199        8.30725277755613
H           13.45969749802869       16.13983339894382        6.41697531922823
H           12.10907135914524       17.29935825843285        4.71036406814645
H           10.56155752610490       16.03170651882406        3.27928292201327
H           10.34983564639905       13.58569867874708        3.53975418102091
H           13.49004699899933       10.95651583955990       10.04812835680769
H           14.21129346296384       11.08981887082119       12.36585085928878
H           15.32416351559564        9.21723453948411       13.47516347400403
H           16.23460598560575        7.45392812662836       14.33872792581489
H           17.08574051607225        5.32984869026151       15.19717057064025
H           17.23930577711365        3.35076672295607       13.79811825587426
H           17.32858441171175        1.83018115625483       12.54998437985866
H           16.62224372746833        0.72609850552743        9.81808252896804
H           17.87637456072903       -4.21662514536012        9.99698961801088
H           18.85668737038146       -5.90622533625869       11.50142773764110
H           19.54320647926755       -5.29014257486437       13.78182750124727
H           19.25479466784043       -2.97253696330463       14.58256614105039
H           16.05744612813315        2.50152394898413        9.08802669284956
