116
 energy: -21.606101091481 gnorm: 0.000254644513 xtb: 6.6.1 (8d0f1dd)
C            1.40722822010598        1.96730332941040        0.22535422617447
C            2.91624962205620        1.78289151659705        0.24557884254434
C            3.33928792894767        0.42956618601054        0.81808469345261
C            4.85503394945293        0.23194179760197        0.83576914918311
C            5.27151232963174       -1.12462869948581        1.40326070080908
C            6.78565604505687       -1.33408125905943        1.41207917418848
C            7.19188583117508       -2.69884393314397        1.96710825411916
C            8.70342656067245       -2.92581951568604        1.96518214659966
C            9.09458865247029       -4.30071974426816        2.50542819343250
C           10.60209849884238       -4.55144625326613        2.48842314917780
C           10.97119655744014       -5.94196713110178        3.00475166002768
C           12.47083558342898       -6.22332638529956        2.95541123357972
C           12.91988806437016       -7.53986828286367        3.62303555001669
C           12.24722051162020       -8.79056661300019        3.01577347917699
C           10.88242948179884       -9.17460588347971        3.58847643516986
C           10.30745285054375      -10.40409034202792        2.88412748855517
C            8.89690759930900      -10.76922812518669        3.34000923809013
C            8.32573097845280      -11.96464978514048        2.57733569022509
C            6.89196319003418      -12.30630162057669        2.98042847134965
C            6.31948012623978      -13.48889776130511        2.19912045955563
C            4.87556167837314      -13.81504050043204        2.57989145401304
C            4.30060852041862      -14.99473313352799        1.79473992307404
C            2.86072695674531      -15.30639819149094        2.17025608737235
C           14.44710460310356       -7.66751393013528        3.53232510623343
N           14.97924043916466       -8.76569537663069        4.34315415206883
C           15.36627508029937       -8.64467146886304        5.69910458506915
C           15.38900037835589       -7.66713329946277        6.71221955553549
C           15.85849604136421       -7.97115432339317        7.99095334820016
C           15.86595574995227       -6.89822350968089        8.98282766094812
C           16.88969341485554       -6.56275007884020        9.80502058137458
C           18.13332852823373       -7.19461470122357        9.76136038648845
N           19.15721117336934       -7.74535220818066        9.71616426974442
C           16.70931934745500       -5.50178194169927       10.69305007370102
N           16.52872721015103       -4.61570454251236       11.42548430116375
C           16.28382821142450       -9.33509648551055        8.33617072645038
C           16.67080451484293       -9.78304433064151        9.60306153363015
C           17.02971032281292      -11.10026785166980        9.81020351476044
C           17.00266336292566      -12.04438329355190        8.79034906491660
C           16.60666248692288      -11.68960657775861        7.50795383251870
C           16.48150734917573      -12.62478475418712        6.35912661699696
C           16.75386706760678      -13.98505220332467        6.40106660347962
C           16.55225636964906      -14.78277812498828        5.28077786387749
C           16.07072521748005      -14.27456449832040        4.08980760005004
C           15.77870652870597      -12.91214711849647        3.95871120869845
C           15.21916807818462      -12.25716915945890        2.76832381612164
C           14.91816836578179      -13.05935564857406        1.59752915057660
C           14.00588306075808      -12.78850299242244        0.63221158678361
C           13.16156220477248      -11.67745351886788        0.64717929197164
N           12.47390417676351      -10.74055930029662        0.69319093651033
C           13.85792762230058      -13.70450154658741       -0.40981460955379
N           13.74563085084196      -14.48638777358433       -1.26443737200446
C           14.95916218338834      -10.88750559459212        2.76416332330652
C           15.18723260365383      -10.09752060926388        3.90704244527075
C           15.70673078892892      -10.77432698749771        5.00638962084840
C           16.01220025541870      -12.13190561372387        5.10826171119277
C           15.82178586750174       -9.90636381513282        6.07201592781818
C           16.26293900380005      -10.31942094837818        7.32953429897166
H            1.11747177559094        2.93683999634045       -0.18528965910767
H            0.98763342949996        1.89794353723999        1.23042401934771
H            0.92367701047144        1.19756774841114       -0.37860572838413
H            3.38752248379420        2.58589389397429        0.82727679340424
H            3.32346053042320        1.89062270019206       -0.76826717664462
H            2.87039679652440       -0.37623968670485        0.24064901051237
H            2.94188191063029        0.31940013563346        1.83420505723938
H            5.32540570841029        1.03472664078213        1.41606783175053
H            5.25276164165153        0.34375200759855       -0.18000762198846
H            4.79374679301084       -1.92573943020170        0.82656276831194
H            4.87882432352722       -1.23416764065025        2.42127118043605
H            7.26555991690472       -0.53970554918184        1.99609977420116
H            7.17932955559130       -1.21819288903633        0.39518495278005
H            6.70197565401924       -3.49046086775135        1.38745846599278
H            6.80408308125834       -2.81190246253751        2.98661239754683
H            9.19653256658114       -2.14280315694236        2.55342931930922
H            9.09254213105815       -2.80594811852977        0.94702917505782
H            8.58789629781722       -5.07990080971599        1.92325329177301
H            8.71369528645108       -4.41714469881085        3.52719046767141
H           11.11254789692807       -3.78566053713422        3.08444521470721
H           10.98564069146311       -4.42351123314490        1.46911715661885
H           10.43588142065602       -6.68950502333217        2.40920546437723
H           10.60627225149033       -6.06021212259149        4.03190874457582
H           13.00577792446196       -5.38846323422750        3.42312897409533
H           12.80596784853318       -6.22471494842234        1.91237481945179
H           12.65172122137550       -7.50035919347538        4.69022201069562
H           12.90892788743542       -9.64931384497060        3.15891769714925
H           12.18042482260586       -8.67140662574800        1.92875136350673
H           10.17489595299815       -8.34521569448584        3.50600162706002
H           10.96901829743228       -9.36602712747963        4.66480438118651
H           10.97909266577411      -11.25929573958468        3.02676046323043
H           10.30722321871019      -10.23198337581193        1.80066513649175
H            8.23520560278739       -9.90372331809990        3.21469323461268
H            8.89551688650252      -10.97754387315684        4.41651521000844
H            8.97082158764736      -12.83900879277693        2.72503411101713
H            8.36466028858634      -11.76319702117780        1.49999001142170
H            6.25135320503764      -11.42768182781430        2.83805909385849
H            6.85071602156443      -12.51821840040655        4.05550728273467
H            6.95062337220561      -14.37233434525743        2.35285083335739
H            6.37781496382015      -13.28145139594623        1.12386968362992
H            4.24624967276295      -12.93012453116375        2.42662692947630
H            4.81613212244334      -14.02374836408377        3.65479993541595
H            4.93253465759088      -15.87829927905471        1.95368282466005
H            4.37323615029222      -14.78423663348224        0.71965155298092
H            2.77347397809048      -15.55211302784161        3.23000253425202
H            2.46226208213924      -16.15051715057463        1.60345398822623
H            2.21015157135541      -14.45014260339710        1.98417910638888
H           14.93129940216510       -6.74298812865063        3.85746006729032
H           14.74824594786452       -7.82534616008459        2.49407159340978
H           15.06018060392431       -6.67000905817952        6.48651917859825
H           14.98532085263676       -6.27702902289686        9.03019369714526
H           16.69087294358364       -9.08656404223169       10.42222583099493
H           17.34014688279561      -11.40656269101371       10.79580678821728
H           17.28181883280147      -13.06204485776048        8.99674193838892
H           17.11750228334803      -14.42504615315914        7.31234275864959
H           16.77040207084220      -15.83614393370079        5.34739170231161
H           15.90775720801257      -14.93642856714113        3.25853606722005
H           15.46447361244926      -13.97974822509322        1.48700225052066
H           14.56589000658441      -10.41504678702534        1.88566600875159
