141
 energy: -22.276429408765 gnorm: 0.000510043710 xtb: 6.6.1 (8d0f1dd)
C            0.67785129139199        0.25492480865586        0.19883489036803
C            2.22335983164592        0.19005536476323        0.16489863325303
C            2.76026880350161       -1.24895737358003        0.05126204998056
C            4.28638087856638       -1.31407373856244        0.00542276100347
C            4.82277129644082       -2.74058936293926       -0.11468549054147
C            6.34952361603917       -2.80063781022378       -0.15859763166064
C            6.89124772744523       -4.22450964357830       -0.28325226562417
C            8.41825305420842       -4.27865620602558       -0.32212265290374
C            8.96551910090008       -5.70029790477829       -0.44578572142421
C           10.49286081985209       -5.74961369980739       -0.47604769755002
C           11.04474445642673       -7.16996431302038       -0.59500761511668
C           12.57240679706745       -7.21574783471642       -0.61433525850581
C           13.12820686842694       -8.63494401992983       -0.72858493262170
C           14.65602568231370       -8.67747094156810       -0.73629100038969
C           15.21521323165447      -10.09531400582921       -0.84778200831883
C           16.74270065977512      -10.13487915763209       -0.84577943837043
C           17.30360159567084      -11.55106652290402       -0.95848823062063
C           18.83098233143820      -11.58756490114173       -0.95058565008388
C           19.41363335340564      -12.95190269832070       -1.06494343112065
N           20.73996656904009      -13.20721194213395       -1.09056413075125
C           21.01960807452043      -14.56252504555214       -1.20341016806321
C           22.35697911297618      -15.07440647956880       -1.25108474345949
N           22.66144524734544      -16.37673339491145       -1.36154146142584
C           21.76198677780256      -17.52079772760844       -1.45546397876850
C           22.46792929602704      -18.84640772227070       -1.57106730143065
S           21.22234998185989      -20.19902070577602       -1.68246599691877
O           20.49606682166721      -20.01172221837224       -0.39632267577804
O           20.49019627003934      -19.79863926372721       -2.91549335196916
O           22.10584474140485      -21.38805201346491       -1.78510307450412
C           23.39648130170282      -14.09562495995578       -1.17318309111893
C           24.78921630665579      -14.23588218548825       -1.18996663938605
C           25.35133882706977      -12.96187415929679       -1.08611573814627
C           24.31753655876890      -12.02332031247082       -1.00401799260338
C           24.36903856129039      -10.54087794923567       -0.88253792620846
C           25.78056102343417       -9.95888811259685       -0.82483903651095
C           25.79212064797781       -8.43614043792364       -0.69872061580105
C           27.20362394402692       -7.85341447752404       -0.64247891260841
C           27.22027707940630       -6.32995472076560       -0.51694873685426
C           28.63497379899419       -5.75356401052960       -0.46197431270478
C           28.66137687017488       -4.23010714757365       -0.33677484517488
C           30.08036506768488       -3.66396590374914       -0.28286632614424
C           30.11907469689696       -2.14079955432652       -0.15778736964752
C           31.54284434290238       -1.58667680516622       -0.10498795935481
C           31.59477749273810       -0.06398455630152        0.01991433410726
C           33.02334285691175        0.47777513026412        0.07129915104862
C           33.08819751453963        1.99994635870395        0.19571179589163
C           34.52116836468299        2.53019394719115        0.24530293432897
C           34.59711113771971        4.05182386848863        0.36903763732193
C           36.03348559733612        4.57328663275227        0.41692557117277
C           36.11759575743443        6.09521041724854        0.54025632568023
C           37.55020977315609        6.60286543046366        0.58645577638425
N           23.16919513834012      -12.73338001636034       -1.05913692747526
B           21.78349791411420      -12.09219322149234       -1.00191543826953
F           21.63022109120327      -11.23060692095397       -2.08552202739935
F           21.63739894000911      -11.41978475974416        0.20908512430434
C           19.76371714692276      -15.18458017083714       -1.24986147034468
C           18.78386746219445      -14.19496372233339       -1.16461930585738
Na           0.89258123099111        1.47795095906388       -1.74828333497678
H            0.29019314280755        1.33042774799059        0.26756927323890
H            0.28106420643996       -0.29190704151956        1.07145246668983
H            0.21839374259391       -0.22971930824159       -0.73122692399538
H            2.64632948837238        0.67196882733975        1.06854568283437
H            2.62181384566392        0.81269741725308       -0.71263364846541
H            2.34302347116382       -1.72673648704879       -0.84337548262648
H            2.38949201275386       -1.84645594433373        0.89262273627504
H            4.70207683517495       -0.83882069873640        0.90231614062289
H            4.65567053154996       -0.71046205061283       -0.83274094694760
H            4.40903799627314       -3.21590553759789       -1.01240113697909
H            4.45391643584168       -3.34507694142701        0.72286658043506
H            6.76213215294124       -2.32753598170329        0.74079945650074
H            6.71788511963324       -2.19252580375914       -0.99377195553887
H            6.48230055691818       -4.69735904214559       -1.18433008829602
H            6.52192644335114       -4.83379827989290        0.55049500044527
H            8.82593813556773       -3.80482285224105        0.57914999269141
H            8.78727488802815       -3.66841018468775       -1.15544962723482
H            8.56300092406681       -6.17339529609380       -1.34970207724802
H            8.59358124300470       -6.31182552292405        0.38524329296074
H           10.89394798798809       -5.27377706949721        0.42710542573878
H           10.86479527798234       -5.13906202369862       -1.30782438526796
H           10.64978452641018       -7.64462987501321       -1.50139526230834
H           10.66849530482153       -7.78187806978370        0.23376406198258
H           12.96599261252633       -6.73862404033187        0.29144890844343
H           12.94892819578437       -6.60482579555722       -1.44378982945692
H           12.74115829988107       -9.11070595508498       -1.63784079804441
H           12.74694467289815       -9.24747534676380        0.09747503276831
H           15.04188740068416       -8.20054093858961        0.17290930729974
H           15.03756164672284       -8.06518766182562       -1.56244340478867
H           14.83515293463784      -10.57122240485618       -1.75998396090568
H           14.82986625178433      -10.70946829787509       -0.02474421048813
H           17.12251065064016       -9.66061563115053        0.06727147174614
H           17.12870130303942       -9.51987311238166       -1.66773375146105
H           16.92988056407501      -12.02408655584113       -1.87447088800022
H           16.91754879699930      -12.16725628131141       -0.13768772425671
H           19.21354463645395      -11.12397814907261       -0.03396297558401
H           19.22575242820824      -10.97399808163677       -1.76862839405443
H           23.63510613153591      -16.67306459468770       -1.39013379724198
H           21.10981064803087      -17.37603684544837       -2.32558989291073
H           21.11651314999052      -17.52566799167595       -0.56848454201696
H           23.10590263625289      -19.03250815540636       -0.70712560564149
H           23.09993482859230      -18.88293072224110       -2.45834970715434
H           25.32956598115582      -15.16401521880201       -1.26929513916073
H           26.40469126509354      -12.73667288938263       -1.07154203766572
H           23.80541360110109      -10.24823017389898        0.01086802654776
H           23.81759522796682      -10.10613876248215       -1.72417414241962
H           26.33790027734838      -10.25889184710727       -1.72026269638034
H           26.32625221981414      -10.40281000813343        0.01633874275464
H           25.23327663644361       -8.13665201844271        0.19615201876550
H           25.24325384482679       -7.99313252193143       -1.53853470834397
H           27.76169742039026       -8.15495308384207       -1.53731098628304
H           27.75165861247502       -8.29785907428327        0.19729450427975
H           26.66354559423420       -6.02756256562598        0.37832503969910
H           26.67284771559267       -5.88474919772979       -1.35660517232954
H           29.19081176618561       -6.05828766305713       -1.35705464964682
H           29.18147160002347       -6.20070105435664        0.37730298903703
H           28.10742860263012       -3.92370483993278        0.55884272134052
H           28.11655260480687       -3.78129285775104       -1.17618422555628
H           30.63322590950970       -3.97302404478906       -1.17827668865214
H           30.62409239433246       -4.11522488531750        0.55597520389193
H           29.56841566808610       -1.82979504006799        0.73824373755006
H           29.57742553440499       -1.68756172040068       -0.99684447472023
H           32.09241715726335       -1.90052463676156       -1.00078670983078
H           32.08339838307577       -2.04250626986767        0.73346655431183
H           31.04766784559457        0.25181849972029        0.91643149125581
H           31.05628540152226        0.39380719039161       -0.81869257101981
H           33.56940756462130        0.15906604526998       -0.82492549627420
H           33.56073852930805        0.01761399370501        0.90941530046011
H           32.54468039744619        2.32054871125426        1.09274192119075
H           32.55248457545105        2.46196436579372       -0.64238912843765
H           35.06375484100097        2.20703086957011       -0.65144450927088
H           35.05588897324493        2.06630054742439        1.08307724446644
H           34.05660972227482        4.37639680407884        1.26648276181748
H           34.06345456854334        4.51708167565557       -0.46860349298107
H           36.57334536835514        4.24679649337423       -0.48027933241625
H           36.56648452669553        4.10657410108303        1.25424884715875
H           35.57326465438877        6.41699765057028        1.43797972445392
H           35.57954981170185        6.55730086147152       -0.29803476599069
H           38.09154215407259        6.18077093099934        1.43518833482472
H           37.59838020651910        7.69055584190404        0.67454827853592
H           38.09782966441528        6.32224027631495       -0.31516217708049
H           19.56809290690046      -16.23877271072307       -1.33634128586493
H           17.71928747896577      -14.35955735880734       -1.17431593609615
