94
 energy: -17.440878628994 gnorm: 0.000593687206 xtb: 6.6.1 (8d0f1dd)
C            0.80966706234042       -0.23610180447717       -0.34174213915904
C            2.25790152811845       -0.13117045312820        0.10818555182005
C            2.88946480335110        1.21878380480620       -0.23454400071415
C            4.34892702569524        1.32600196290133        0.20684812176249
C            4.98382807322956        2.67111141168079       -0.14495788679792
C            6.44447776769290        2.77526939429455        0.29319672693745
C            7.07910051405983        4.12137718741599       -0.05519667975644
C            8.53653185390933        4.22923527640190        0.39252152240608
C            9.16560271080994        5.58237046013009        0.06124404705552
C           10.61060849052181        5.70327529327579        0.54417203456378
C           11.23127034882490        7.06785329335630        0.24471767040111
C           12.65085138478380        7.20908259465750        0.79347280836633
C           13.25798283817279        8.58951495155338        0.54404181983433
C           14.65270410301279        8.74295392938577        1.14998426095487
C           15.25192121094211       10.13193681881731        0.93496670059164
C           16.62356133328998       10.29528811052851        1.58770531170907
C           17.21817546853352       11.68662647097296        1.38661566671141
C           18.55252772167306       11.87312658677538        2.08644845042687
N           19.08195664492688       13.20829156967632        1.88342725914736
C           20.23144319965790       13.34646633697259        1.09618226566015
O           20.76203389317905       12.37669011651533        0.58221257218281
C           20.77023422091696       14.69425329780992        0.91252243903724
C           21.91548081142475       14.88794160700821        0.17469578137964
C           22.44080366319863       16.15254929719582       -0.00570251731924
C           21.83899041323903       17.28005847885062        0.54517639235319
C           22.38346725776925       18.61609425301269        0.35849457249817
C           23.54179458758921       18.84666361655709       -0.37809573521687
C           24.04933743962789       20.11903280644417       -0.55480451544473
C           23.42326697543009       21.21388080039561       -0.00483580240701
C           22.24329452358241       21.03374104826958        0.75534811370306
C           21.58835602524055       22.14852602376309        1.33056126830938
C           20.44387599048817       21.95549762320812        2.06954712425240
C           19.92339269930871       20.68986040497089        2.25721482067324
C           20.52794571028666       19.56113597758333        1.71135990363117
C           19.98657030196309       18.22432504517289        1.90257205255423
C           18.83387228565297       17.99204375555425        2.64711315990515
C           18.32689972055054       16.71912520083079        2.82247148727259
C           18.94627277697635       15.62512262714676        2.26282166249374
C           20.12122678264534       15.80743023699301        1.49626945820437
C           20.65128977201093       17.11069819741342        1.31332859160393
C           18.39513673425274       14.28369313350730        2.46009783649204
O           17.37047973827555       14.10938067189528        3.09733351777146
C           21.71526204148316       19.73044324057162        0.94252214069405
C           22.12798167812564       23.49683815230181        1.13892845125361
O           21.57871023938835       24.47023227978290        1.62466009771972
N           23.28648207618893       23.61259477216483        0.38280383506792
C           23.97224365015536       22.55741809474433       -0.20328063196779
O           24.98636444669069       22.73363067725518       -0.85563421034585
H            0.37248699910105       -1.20555576405012       -0.09398560183078
H            0.72135431613016       -0.10262032659491       -1.42115770608858
H            0.19346373552998        0.53178894288647        0.12874265888154
H            2.85291128387621       -0.93443249003215       -0.34538451913104
H            2.33045864974190       -0.30081033024413        1.19028631196918
H            2.30557260385780        2.02557876514373        0.22412618614197
H            2.81815950666315        1.39429030345854       -1.31449744150409
H            4.93082881228018        0.51519926473558       -0.24720575355731
H            4.41998963254778        1.15697969727274        1.28786391544426
H            4.40398640016901        3.48229432743584        0.31108968430761
H            4.91080121911787        2.84132324265404       -1.22563308500373
H            7.02486951381526        1.96522237418700       -0.16411381513329
H            6.51718726032854        2.60312025268735        1.37361586951512
H            6.49486401071234        4.93082074566281        0.39833697879466
H            7.01184609579506        4.29238319444429       -1.13608640468308
H            9.12478833507921        3.42624603124515       -0.06711699414511
H            8.60247643565953        4.04850044542854        1.47196425953445
H            8.56315885523874        6.38425631599501        0.50427250816325
H            9.12112544832472        5.75650509441629       -1.02030510067970
H           11.22013316509980        4.91225186068266        0.09155517428883
H           10.65170572864983        5.51214676730456        1.62307086603423
H           10.59707355941576        7.85785426630827        0.66413558189897
H           11.23150215121653        7.24652986350993       -0.83702951410848
H           13.29520188482583        6.43693141164819        0.35687512190128
H           12.64761447429169        7.00162819532694        1.87011041209424
H           12.59464409535366        9.36104434136683        0.95289575451187
H           13.29714374840425        8.78876246685280       -0.53345428923894
H           15.32312856703909        7.98255118502255        0.73219359173522
H           14.61018807627190        8.52592840919651        2.22399755062781
H           14.56689768652879       10.89238642940017        1.32838977847949
H           15.32535826760526       10.34171856800181       -0.13863818410940
H           17.31360511580903        9.53917285193087        1.19512078304012
H           16.54628576613545       10.08295933156058        2.66059866449912
H           16.51992938061293       12.44880085913320        1.75348734901989
H           17.33737340088915       11.89589256223300        0.31731365793951
H           19.29138191053178       11.15251842034212        1.71986669513254
H           18.45305277464084       11.71076758604053        3.16425612321562
H           22.39447449164486       14.02620942505242       -0.25884596559234
H           23.33702616338124       16.25389566118862       -0.58899542411055
H           24.06506874929453       18.02266065448011       -0.82643549116251
H           24.94680127974597       20.27971068890704       -1.12840385695681
H           19.96341343308116       22.81847252323766        2.49931161791660
H           19.02751139701217       20.58845798583280        2.84112039312443
H           18.31652015222419       18.81492297293206        3.10424418172411
H           17.43472428407514       16.55803397586886        3.40379501321104
H           23.66216064306314       24.53909601705306        0.24945108566331
