91
 energy: -15.130366670908 gnorm: 0.000471749991 xtb: 6.6.1 (8d0f1dd)
C            1.17771214920815       -0.79208467305266       -0.18124070877198
C            2.62155327441697       -0.48708907108057        0.18455305035959
C            3.19936682298363        0.68294264393354       -0.61266123938952
C            4.64859733418720        1.00086034191478       -0.24533674162518
C            5.22137035445951        2.17472786082745       -1.03901000399396
C            6.66578663035732        2.50344580951396       -0.66276273146367
C            7.23159313815756        3.68630956420737       -1.44779251820561
C            8.66853175231616        4.03179803061388       -1.05800428007059
C            9.22430093974649        5.22503120680907       -1.83428788072242
C           10.64952167141883        5.59658850828379       -1.42597019649166
C           11.18866634084684        6.80483004551235       -2.19082629554851
C           12.59621241814778        7.21367670315041       -1.75746468165656
C           13.10612248586415        8.45025206234296       -2.49685191456516
C           14.49138204923506        8.90083073226583       -2.03491051210380
C           14.96064395264042       10.17603677435084       -2.73367038505996
C           16.32439489806726       10.66292330587784       -2.24714539915817
C           16.74709765130409       11.97651543110818       -2.89957686438962
C           18.08079211647929       12.49811497600244       -2.39646067636198
N           18.39997224545169       13.78221625322900       -2.98893153023746
C           17.67229842866709       14.89704860975602       -2.55213972749836
O           16.80806768748344       14.79321389798858       -1.69852183845053
C           17.98092762420013       16.19040962959028       -3.16865467963143
C           17.30217062408061       17.32420199980755       -2.79085005348208
C           17.57406134898696       18.54993427037644       -3.38911145304726
C           18.53649952388362       18.65000456119842       -4.35696725547600
C           19.27249341251094       17.52545984172047       -4.75728764742310
C           20.29753367020007       17.61093141439457       -5.76010548170790
O           20.70421681347745       18.84727008908813       -6.29445582688180
C           21.43891744429639       19.66828923940201       -5.37714764386378
C           22.77865262400196       19.05874301344778       -4.99922788175257
N           23.60043109932516       19.92890013631113       -4.12170165149867
C           23.00069958717987       20.07910930318691       -2.79041881047814
C           25.01984035476989       19.50261109316256       -4.09586873407189
C           20.91387326404252       16.43489200516098       -6.18160480383395
C           20.60402976151439       15.21515877700671       -5.61537474733574
C           19.66278438698517       15.11168873319287       -4.61110702602632
C           18.97710966038426       16.27237824273257       -4.17357568253617
C           19.36173150237515       13.81611784491845       -4.00896802271282
O           19.92422678884007       12.79791487551252       -4.37862207591968
H            0.77612201555187       -1.62919575030121        0.39404541545955
H            1.08338954425390       -1.04572445653319       -1.23866621678408
H            0.53380874248430        0.07018319482490        0.00124303271138
H            3.24713993474365       -1.37595489798681        0.02895282491683
H            2.70149086808240       -0.26892137692963        1.25772435754569
H            2.57771307722282        1.57371488545426       -0.46106350669798
H            3.13012058608822        0.46743113386183       -1.68580190480555
H            5.27220602639733        0.11200638047306       -0.39981404642537
H            4.71785237173605        1.21399521830278        0.82827289176941
H            4.59219170178602        3.06067465114471       -0.89019835732736
H            5.15973056414468        1.95933652724761       -2.11262494883380
H            7.29811431442621        1.62090135455278       -0.81788821443626
H            6.72721859888636        2.71241589820118        0.41214018020477
H            6.59054141343819        4.56416347953162       -1.30160193417940
H            7.18160268501401        3.47388694554720       -2.52259445188807
H            9.31375659313481        3.15824401885214       -1.21061379982545
H            8.71788964492689        4.23798140969032        0.01804341839947
H            8.56595441691018        6.09117376753245       -1.69514490460712
H            9.19171097809703        5.01342831272863       -2.90991429083025
H           11.31427056445319        4.73704770878129       -1.57414348478347
H           10.68168927026785        5.79939210764458       -0.34861966902801
H           10.50576656927422        7.65326260405881       -2.06110405899804
H           11.17963023802312        6.59515425355105       -3.26729894081142
H           13.28972066630645        6.37774013020480       -1.90844344668097
H           12.60704392647549        7.40190230047720       -0.67708753167820
H           12.39274356851748        9.27312983163172       -2.36572565804213
H           13.12069775078822        8.25675265772557       -3.57638488533918
H           15.21875953806637        8.09671534558132       -2.19940895796225
H           14.48219516329313        9.06013131666938       -0.94977954548816
H           14.21695089166700       10.96826449492697       -2.58422191095956
H           14.99045670105198       10.01521676371613       -3.81811979943852
H           17.08350871150207        9.89390904205735       -2.43357774543833
H           16.30297813416462       10.78681495319883       -1.15772989538469
H           15.98259301887387       12.74283594870167       -2.72134545406555
H           16.79045419841446       11.86164675294393       -3.98908426767977
H           18.89092579902560       11.79836480103237       -2.62741695509551
H           18.06378887130711       12.62418754016302       -1.30919346294580
H           16.54565177651257       17.23999640887199       -2.02948708169995
H           17.01691943776209       19.42317208398441       -3.09181250304710
H           18.71705508715763       19.59065463877118       -4.84668333737635
H           20.82052976479662       19.83745904296811       -4.49212284799711
H           21.58202551872046       20.64259810993354       -5.85614843626536
H           23.34395963375975       18.85364156103882       -5.91240852719075
H           22.63410569641885       18.09284046879242       -4.50789264632743
H           22.02331747309820       20.55107413317847       -2.85979304594818
H           23.63318435287375       20.70686999941310       -2.16552506733148
H           22.89096704321991       19.10860754770293       -2.30979726270283
H           25.43310185717092       19.51022580290870       -5.10248394255824
H           25.10681038357023       18.49825754608479       -3.68591109888761
H           25.60358234411394       20.18480382992764       -3.48116999522958
H           21.66337481175596       16.50258302287567       -6.94969328481814
H           21.10112332790119       14.31774247057339       -5.94217824411274
