85
 energy: -14.890115114272 gnorm: 0.000407452867 xtb: 6.6.1 (8d0f1dd)
C            0.65180287539377       -0.18400618193194        0.07823383710906
C            2.17147108806078       -0.20545165235410        0.02989531936121
C            2.75844933521002        1.02585334338849       -0.66136508612080
C            4.28635413818694        1.01488345866371       -0.71409098256769
C            4.86637986084168        2.25675958589489       -1.39031954223475
C            6.39423879275943        2.25587688106346       -1.44559900915345
C            6.96214768524096        3.51386438840031       -2.10186767703374
C            8.48951871249519        3.52723688510581       -2.16996382773300
C            9.03624410787499        4.80274719956737       -2.81018752919082
C           10.56180942826126        4.83518410491721       -2.90529870649465
C           11.07731998627637        6.12835351639845       -3.53592395059065
C           12.59902116819666        6.18533078231788       -3.66797600158504
C           13.07640223156419        7.49435477060799       -4.29553201341914
C           14.59172579987660        7.57688937067643       -4.47170816105873
C           15.02855831528702        8.89636766344271       -5.10347135002486
C           16.53045799030995        9.00027930436664       -5.32687577176402
O           16.88683973946058       10.22774138384903       -5.91651036200583
C           18.22692525083808       10.24128969653509       -6.20122270853824
O           18.98158344650323        9.31286769671032       -5.97008619166986
C           18.73961007505870       11.47633314911882       -6.83127714106596
C           20.07012710779975       11.57137462439894       -7.21774730004989
C           20.54411330240636       12.71490959669258       -7.81263652013309
C           19.70043062687542       13.80313829943855       -8.03678391916676
N           20.18720883969286       14.99435030440239       -8.66177983354029
C           21.17943011533691       14.91468285413404       -9.69629813972337
C           22.17188342073455       15.88488611210933       -9.80613314691481
C           23.11862594387953       15.81114744587697      -10.80322673329485
C           23.09065999486963       14.76826294354043      -11.70880663132288
C           22.11119893914679       13.79883900033016      -11.61383852096209
C           21.16365980035715       13.87068331307519      -10.61755723341033
C           19.65845059315841       16.27349517993244       -8.27854748228513
C           19.41594955823873       17.25864515873993       -9.23210014093391
C           18.89981374980128       18.48071912737836       -8.86325384514079
C           18.61786178760819       18.74172386764257       -7.53629616290079
C           18.85550237108713       17.77516585657450       -6.57835313214871
C           19.37103025788400       16.55228502398450       -6.94494829623085
C           18.36668281733485       13.70285882535140       -7.64172476063764
C           17.89507479901937       12.55710294419275       -7.05094596873858
H            0.24376593851018       -1.06655105939316        0.57605302831736
H            0.22529612272757       -0.14704123013172       -0.92593426031002
H            0.28625242754850        0.69365593118236        0.61464757271986
H            2.52103122684398       -1.11092243878741       -0.48365922053127
H            2.58099339316763       -0.28016212622782        1.04605577283415
H            2.41484381086977        1.93306507484491       -0.14948311860636
H            2.35559243106544        1.10409982350672       -1.67856887886852
H            4.63159678640224        0.11447329997937       -1.23660298647859
H            4.68955794562823        0.92685735562944        0.30210828700420
H            4.51863490405859        3.15560156214165       -0.86659647611210
H            4.46155566000505        2.34582432761925       -2.40585560189989
H            6.74431215851237        1.36707921554440       -1.98446401851843
H            6.80023280068023        2.15350216396105       -0.43189001110926
H            6.61176488408990        4.40017587357471       -1.55885608952267
H            6.54886196121754        3.61929790733060       -3.11243432534772
H            8.84293766558175        2.65166924350434       -2.72785298717865
H            8.90619674377787        3.41141528808971       -1.16211926719840
H            8.68620556078660        5.67496519168098       -2.24448435122750
H            8.60485611577796        4.92354387383971       -3.81149809855986
H           10.91555903374005        3.97341118962779       -3.48407015474642
H           10.99908431025036        4.70902523157972       -1.90748406967275
H           10.72889916342167        6.98623732432299       -2.94768412895353
H           10.62046909313281        6.25975914871361       -4.52458164544067
H           12.95134300562026        5.33666033614379       -4.26669619966945
H           13.06352208629507        6.05410082128695       -2.68318265270395
H           12.73228202575436        8.33913280319340       -3.68634933981271
H           12.58899819691642        7.63097638122765       -5.26868080854960
H           14.93984016662914        6.73852309920317       -5.08698693927753
H           15.08772161076257        7.44676443274283       -3.50237106045896
H           14.70100216275734        9.73650391378933       -4.48079192930992
H           14.51729818130817        9.03788031761279       -6.06241823931129
H           16.89118433932069        8.19996396470775       -5.98519273790904
H           17.08373871416907        8.91332413347188       -4.38369152491903
H           20.71842812669656       10.73026902598161       -7.04038619697845
H           21.57748484807300       12.78990971778816       -8.10252900976221
H           22.19144100205137       16.69032636548106       -9.09280228819113
H           23.88271499060864       16.56766750674992      -10.87655845720500
H           23.83211037911020       14.71128443900860      -12.48898044943098
H           22.08725690321681       12.98607751312843      -12.32124442443681
H           20.39119997518696       13.12502856741561      -10.54462238475289
H           19.62873066624510       17.04451556641112      -10.26495403331132
H           18.71326660644855       19.23392457466141       -9.61120419334923
H           18.21274626911490       19.69822864785067       -7.24880808477938
H           18.63792232135100       17.97881641297905       -5.54261306033403
H           19.56611419850572       15.79721882510254       -6.20338925792477
H           17.70715900421125       14.53362052083028       -7.82163996132810
H           16.86412002892606       12.47586411654038       -6.75223711358051
