146
 energy: -25.758271150371 gnorm: 0.000618031531 xtb: 6.6.1 (8d0f1dd)
C            0.64413863254492       -0.30279978231873        0.31712003634431
C            2.13580705884470       -0.29811003177302        0.02271820664054
C            2.71335773099701        1.11383911260551       -0.08461521808213
C            4.21190530922418        1.12717080867033       -0.38596450509735
C            4.78938903753881        2.53937481775524       -0.47794537452264
C            6.28674861857577        2.55520674363689       -0.78466013335240
C            6.86741001720059        3.96768800010976       -0.84733943838009
C            8.36403900713540        3.98730490805064       -1.15765193414694
C            8.94950738759361        5.39905597414541       -1.17829298483924
C           10.44540150343858        5.42351784553801       -1.49155572121330
C           11.03688568898745        6.83249892548658       -1.46108332860565
C           12.53215783074639        6.86249041998815       -1.77652788511119
C           13.13043630652719        8.26605172560422       -1.68910427538635
C           14.62512173157110        8.30221422972232       -2.00522545347321
C           15.22830815833041        9.69701976634662       -1.85762720981787
C           16.71662854613038        9.74249595330846       -2.17004219959360
O           17.25265393639311       11.04444692390568       -1.96397864327621
C           18.64502259014764       11.14466936713112       -2.08814223952586
C           19.46378900553224       10.13033821661680       -2.57946965487713
C           20.83661990111167       10.27756871258628       -2.67324562129925
C           21.63171867790947        9.23698627676374       -3.17391766518754
C           22.35737306310793        8.35672293829581       -3.61222435316273
C           23.21376746838561        7.36304059806095       -4.12422200130797
C           22.88168509528777        5.99599482804155       -4.00078055049749
C           23.70158051304587        5.02588057273285       -4.48893417867086
C           24.91300117078234        5.36269477310881       -5.13577973620231
C           25.78880432541406        4.38234334109174       -5.65287491232317
C           26.94844704676753        4.74402172561360       -6.27103525588412
C           27.29080592082751        6.09556044001430       -6.40313301670990
C           26.46980656870453        7.06714485261791       -5.91510624139363
C           25.25927201329675        6.72848006667318       -5.26809879591508
C           24.38587144388921        7.70869478652892       -4.74958563783743
C           21.44425767904304       11.48348112911201       -2.25728995618365
O           22.83973651109093       11.57827251602950       -2.35304395756463
C           23.40781920430382       12.72217679659400       -1.72553307958247
C           24.92764124938569       12.65947797321818       -1.69938006372523
C           25.55783026413073       13.85798792418993       -0.99354375416218
C           27.08280240302218       13.78446286728206       -0.92950431590375
C           27.70378774681527       14.97402792385025       -0.19784741620827
C           29.22755386136977       14.89648824860904       -0.10794120958884
C           29.83963316803366       16.08174431301310        0.63831413634612
C           31.36273422517543       16.00567895846859        0.74087075295849
C           31.96836739365941       17.19119688242177        1.49209498690451
C           33.49163373684652       17.12054217388339        1.59669016408166
C           34.09312193853084       18.30894394137703        2.34666325762983
C           35.61699419977442       18.24548975657673        2.44622933896329
C           36.21634481769969       19.43726627897033        3.19254218621893
C           37.74099389118216       19.37984488502490        3.28509868778387
C           38.34121009090647       20.57371322397665        4.02888357073871
C           39.85807955625224       20.51291074562857        4.11305310239839
C           20.62365954282359       12.50251297820479       -1.77843947167749
C           19.25033682367657       12.35721097334074       -1.68957771885983
C           18.45010862209154       13.39787057785444       -1.20011632055503
C           17.70310363317972       14.26752841940961       -0.77481989475011
C           16.81241900854983       15.24293339897524       -0.29339060684837
C           15.66032479355955       14.87278757259688        0.39389523877489
C           14.78286220072163       15.82180397058259        0.86213858906920
C           15.01676148357272       17.18503439062781        0.66306629877572
C           14.05291890984798       18.14460650265675        1.17752413783436
C           14.07804903290342       19.49369858419380        1.08438231120723
C           15.09076328562083       20.21256968924307        0.44670848154876
N           15.96137563818174       20.76159279458712       -0.09546271683590
C           13.02677852816323       20.21108913950667        1.66183789819415
N           12.13923535341878       20.78109110894106        2.15306164521708
C           16.17540530204118       17.54728605480866       -0.02857720781587
C           17.05257207557990       16.59857190533019       -0.49552386962239
H            0.24353188263747       -1.31611079187014        0.39368913236532
H            0.08550752840445        0.21255413372404       -0.46645239035556
H            0.42545250386911        0.20823116386404        1.25662524609201
H            2.33937772706334       -0.84482949177385       -0.90763502253206
H            2.67653464932441       -0.85264121950508        0.80122577535516
H            2.51999864612308        1.66195890353254        0.84560971652547
H            2.17683388259042        1.67327982482894       -0.86069691487804
H            4.40490844062739        0.58811215114908       -1.32149629874890
H            4.74768639025135        0.56004309543904        0.38502640215277
H            4.60034401512247        3.07542190118743        0.46014768283176
H            4.25026112014066        3.10918475403217       -1.24458697542220
H            6.47505153620404        2.03591454472182       -1.73223441560528
H            6.82359521147875        1.97022660235792       -0.02789005615778
H            6.68242379556290        4.48287292864019        0.10316829250157
H            6.32726809740647        4.55589571254994       -1.59921169934066
H            8.54814384689644        3.49632400688075       -2.12095471557845
H            8.90058681217429        3.37785780037826       -0.42028745054598
H            8.76883615940387        5.88489858128149       -0.21159483451046
H            8.40938360989356        6.01239281290528       -1.90986092754910
H           10.62520810679127        4.96758522441186       -2.47276034540756
H           10.98095615339821        4.78502360678120       -0.77839677237247
H           10.86052454164731        7.28246802775277       -0.47642700422276
H           10.49776502425934        7.47510039637986       -2.16778221654031
H           12.70779643960861        6.44651727645355       -2.77603885724119
H           13.06598706096268        6.19272268944160       -1.09134759449669
H           12.95780810891113        8.67576919276198       -0.68645163443392
H           12.59346434765052        8.93988473085173       -2.36766875792157
H           14.79790085518302        7.92964127763547       -3.02220747294961
H           15.15705751653311        7.60140994005209       -1.35027266139077
H           15.06652764706067       10.06865693049305       -0.83933370762748
H           14.70195569594782       10.40690235625809       -2.50572753474577
H           16.90014733763091        9.45669163798812       -3.21136976031502
H           17.26367099568955        9.04371086432730       -1.52764987498452
H           19.03072643406612        9.20337374956409       -2.90446810497212
H           21.96094060093245        5.73311750566561       -3.50851067770887
H           23.43668553232737        3.98757244633159       -4.38747366372304
H           25.52592369789487        3.34345739021594       -5.55170571432034
H           27.60789635607870        3.98706033664029       -6.66313316527883
H           28.21077989219419        6.36558220606852       -6.89541219110976
H           26.73319905799351        8.10583205879029       -6.01707773604727
H           24.64369114795397        8.74831087360238       -4.84454807450906
H           23.01390228848037       12.78037413741266       -0.70484136898557
H           23.06916655655720       13.61173064450216       -2.26769047847769
H           25.30522635348247       12.58224748178661       -2.72521296762166
H           25.23883578461534       11.72950923756368       -1.21013155929456
H           25.15215690835500       13.93898533182514        0.02231397949099
H           25.25307417446936       14.78407110845829       -1.49598906523743
H           27.49311001070929       13.71841035097797       -1.94438976338801
H           27.38558504391100       12.85180219572580       -0.43829852224621
H           27.28029121570646       15.04548046736040        0.81138932876246
H           27.41070881342239       15.90648387287517       -0.69539473119884
H           29.65447310374886       14.83410465904591       -1.11627039768721
H           29.52034870631002       13.96087934973559        0.38385271377942
H           29.40657440184962       16.14609872797953        1.64396885368917
H           29.55010364455044       17.01708620056435        0.14406672595591
H           31.79748136922420       15.94468687265348       -0.26424470594771
H           31.65282624663633       15.06983040769270        1.23387816409969
H           31.53299863822827       17.25139688721690        2.49695326558913
H           31.67648606171052       18.12663458205415        0.99949302895111
H           33.92742800116253       17.06008765126571        0.59202041227602
H           33.78456742142836       16.18616546014882        2.09073020811992
H           33.66031122523840       18.36689768431398        3.35278914072946
H           33.79530023156951       19.24301363966627        1.85493994496812
H           36.04946182502980       18.18587133948137        1.44005987524633
H           35.91583525448764       17.31290520603250        2.94012708902974
H           35.78768473909011       19.49413568316561        4.20050434802192
H           35.91234768852295       20.36959947493158        2.70130046861798
H           38.16896600246464       19.32148161536443        2.27691279740181
H           38.04542312048785       18.44819738796633        3.77738540399935
H           37.90840406055038       20.62785023328513        5.03662604104121
H           38.02709197276047       21.50313138562867        3.53560774030529
H           40.18892227033188       19.61152158898340        4.63221474642675
H           40.27466131652547       21.37046430451184        4.64613820537560
H           40.30822587362422       20.49454376375814        3.11879719893288
H           21.05331615817683       13.43681805937242       -1.47045642184986
H           15.46482990910523       13.82553809860497        0.55119753378750
H           13.89637535512858       15.51651275774922        1.39152674626161
H           13.21026120214073       17.72190907752293        1.69835735488020
H           16.39009187959163       18.58471353621675       -0.20387261584859
H           17.93982928749956       16.89508896830320       -1.02903304448235
