77
 energy: -12.879362153553 gnorm: 0.000954420670 xtb: 6.6.1 (8d0f1dd)
C            0.97361291428978       -0.47478464454512        0.63109659968595
C            2.48759747245069       -0.35243155292312        0.55915996089228
C            2.95428413915895        0.55423240531900       -0.58080351882436
C            4.47562070540334        0.68246949326954       -0.65925147446194
C            4.93993009945619        1.59144782087281       -1.79707847719253
C            6.46138602805256        1.71113714249802       -1.88373367509152
C            6.92496360764750        2.61465134097358       -3.02623931092020
C            8.44673926733014        2.71022843380747       -3.13233528485943
C            8.91129896896521        3.60427660608895       -4.28192574755924
C           10.43303789143113        3.66955274041832       -4.40889583085269
C           10.90050752483186        4.55421334831433       -5.56440842086598
C           12.42166064863251        4.59050489700033       -5.70944127938864
C           12.89165862560475        5.46540866883138       -6.87120149302141
C           14.41174088754455        5.48072923590640       -7.02959482127916
C           14.88135642095244        6.34998510875772       -8.19496166978317
C           16.39310796895254        6.35565698748510       -8.36430876512446
N           16.81643299659931        7.19208040332535       -9.50372388862000
C           17.08417075446559        8.51302311226123       -9.31035702180250
C           17.42738339552247        9.30802534735915      -10.36342858436482
C           17.52144670378640        8.77931698289203      -11.66265389062969
C           17.85982159584710        9.66466476193562      -12.75393841816175
C           18.37898254117917        9.36121898586148      -13.97945602612000
C           18.82162634768877        7.97796735469547      -14.31862986512563
C           18.55349767052208       10.40584018383898      -14.99197104166708
C           18.64602404115758       11.76390461724110      -14.65239696403633
C           18.80405775491131       12.73037463488738      -15.61952550715921
C           18.87561449636640       12.37610010300431      -16.95236554517841
C           18.79161608096422       11.04624912851637      -17.31440079998755
C           18.63449048264669       10.07487065304147      -16.35241137488284
C           17.20648640775635        7.41956685616324      -11.82744840719019
C           16.86659550707092        6.65203377955018      -10.75249319076746
H            0.65201071881915       -1.12340182896700        1.44969234769088
H            0.56606167080826       -0.88746317791418       -0.29427339909163
H            0.50521605460438        0.50026218977981        0.78154589222013
H            2.94243204611760       -1.34559470150284        0.44223170498310
H            2.88210527505172        0.02915417724775        1.51079937609467
H            2.50594002251146        1.54932945314408       -0.46735495956825
H            2.56680651864318        0.17553117471984       -1.53504477280814
H            4.92372676820159       -0.31223700434304       -0.77602427116344
H            4.86405023872398        1.05888507460783        0.29535845011448
H            4.49758245055337        2.58828835189097       -1.67700600847529
H            4.54534357549133        1.21828891156875       -2.75045229743459
H            6.90255565009609        0.71351514446935       -2.00132245325574
H            6.85749590985025        2.08659307496739       -0.93198520728622
H            6.49944242856351        3.61786723882266       -2.89996851576346
H            6.51284875768194        2.24836576757841       -3.97466875695936
H            8.86992714085504        1.70548023174674       -3.25425448242608
H            8.86086340309367        3.08005281862709       -2.18622824713382
H            8.50719270300847        4.61558727022016       -4.15054831505021
H            8.47907581136578        3.24571971489277       -5.22425770395958
H           10.83423701172375        2.65657804725719       -4.53654310513568
H           10.86707661426684        4.03060211039377       -3.46840758595279
H           10.51741832294612        5.57303556350378       -5.42842767536428
H           10.45031752584123        4.20386415521973       -6.50137083336719
H           12.80250494744011        3.57012632342037       -5.84058840689590
H           12.87334022095935        4.94432659280404       -4.77450040583933
H           12.52413424120776        6.48990703135592       -6.73424626915097
H           12.42841894788837        5.11933029237686       -7.80348509220521
H           14.77811531484453        4.45556149947970       -7.16474633714643
H           14.87678387113161        5.82862980521231       -6.09898164920752
H           14.52588710721758        7.37865949135745       -8.06025572434928
H           14.41282542548553        6.00868499989323       -9.12591698012812
H           16.76775191974303        5.33903614111894       -8.51710118170228
H           16.88203356334733        6.72168590976971       -7.45652960125548
H           17.01310670960897        8.91368560141102       -8.31475765353671
H           17.63637401370455       10.35231951450403      -10.20710809805115
H           17.65876048731848       10.70304574592060      -12.55731985665605
H           18.01509283789979        7.40561731237756      -14.77963468805806
H           19.17272897964683        7.44534055640124      -13.43381912450887
H           19.65919321686241        7.99735976107885      -15.01787936468232
H           18.62954467161959       12.05832028105095      -13.61809518894211
H           18.87693371678719       13.76799887508157      -15.33605248826079
H           18.99892417507394       13.13605118839960      -17.70702810696180
H           18.84568050490906       10.76915640488469      -18.35480971321858
H           18.54580606111688        9.04458349283543      -16.65070850245734
H           17.16645009811495        6.99375557333769      -12.81323912485683
H           16.61010240214158        5.61443891126963      -10.87309188865331
