82
 energy: -13.667232073455 gnorm: 0.000513832008 xtb: 6.6.1 (8d0f1dd)
C            0.66588436039402       -0.25204861664602       -0.24796595171347
C            2.18549929491925       -0.25718651214552       -0.18973422028990
C            2.76609592585936        1.10116337516219        0.20564806226150
C            4.29356819898430        1.10600057658701        0.27020837125682
C            4.86667610286487        2.46707151707237        0.66373687580112
C            6.39359913332815        2.47977661461507        0.73759780736113
C            6.95425056510701        3.84761133862465        1.12543701207384
C            8.48036913223559        3.87546265914881        1.21054628816253
C            9.02234650832072        5.25572212615883        1.58067603280800
C           10.54741259782291        5.30698191099562        1.67225900395226
C           11.06568713491730        6.70439396264918        2.01060419580925
C           12.58911503969288        6.78470729116971        2.10661542245172
C           13.07974873410161        8.19977895402673        2.41094295720985
C           14.60030380327741        8.31098937092431        2.51663997023625
C           15.06037274215191        9.74257178348867        2.79128269181534
C           16.57267811704061        9.88001341180339        2.90876596620748
N           17.06848893782263       11.26165279177246        3.11987952413113
C           16.22670922576484       12.32654860809009        3.28918811338523
C           16.71930393812227       13.58214681185676        3.47111436293871
C           18.10687225672736       13.81245641256233        3.49176955489279
C           18.59609918214201       15.14217072882777        3.67727338942057
C           19.90303351111556       15.50994542436762        3.70528609573284
C           20.38556472092306       16.84938809721122        3.88750367861154
C           19.52975682663215       17.94993662148191        4.05921207956889
C           20.02859807413599       19.21481360212597        4.22656132221405
C           21.40904597490616       19.45859075757390        4.22972706140311
N           21.91470744847788       20.75600317075098        4.38429286594043
C           21.03175782895364       21.90200769052239        4.60175645474809
C           23.35175159990499       21.02799626831568        4.36020651310294
C           22.26440475992290       18.36040215341623        4.06367220933702
C           21.76824246225660       17.09466694466229        3.89653561907685
C           18.95045711644327       12.69873554608267        3.32355183354583
C           18.42184313731568       11.45689059728903        3.14286042232207
H            0.26174992757865       -1.22675065123313       -0.53167030606304
H            0.30078101039638        0.47814227413622       -0.97307989203856
H            0.23441313312972        0.01299917662504        0.71943427051678
H            2.60052583173653       -0.56040335118374       -1.16042780923518
H            2.53454478228586       -1.02084765293953        0.51837057248805
H            2.35583419522643        1.40845197809425        1.17567423416633
H            2.42505830590917        1.86722930332770       -0.50182769632100
H            4.70520660398877        0.79853754142581       -0.69910120928396
H            4.63551609417630        0.34245568621943        0.97984389905301
H            4.44941500073200        2.77623928884960        1.63015968446178
H            4.52656658435597        3.22900889380528       -0.04862202790936
H            6.81299544492836        2.16848265772067       -0.22713741250704
H            6.73548404153569        1.72309334555998        1.45453568462636
H            6.52717150744545        4.16084776784310        2.08625685005364
H            6.61306714487267        4.60132108785715        0.40485717010598
H            8.91007140233962        3.55399979446910        0.25375399126567
H            8.82455521921642        3.13360186909426        1.94168051657732
H            8.58625606696378        5.57821127480648        2.53439583803021
H            8.67472785914954        5.99371340252826        0.84697181831107
H           10.98655467271343        4.96907931459464        0.72545880856880
H           10.89886045320934        4.58834594043190        2.42290013966469
H           10.62019627624945        7.04286734089139        2.95438475346607
H           10.70883466505677        7.41830785001341        1.25775247458581
H           13.03850717104995        6.43067290149554        1.17061923035686
H           12.94995391654629        6.09218904993636        2.87703546026125
H           12.62068364145503        8.55512252018679        3.34191938452751
H           12.71610967270073        8.88679555438775        1.63661995568212
H           15.06408488090661        7.94349739013256        1.59294823413705
H           14.96773551520666        7.64415308981110        3.30634805677566
H           14.58551842454584       10.10535255963916        3.71077030477735
H           14.69484812274905       10.39965361994792        1.99293011230099
H           17.04981018742125        9.49119815807708        2.00386791567130
H           16.94149775526108        9.26188250958361        3.73297383672348
H           15.16470354328219       12.16577068022893        3.27746157532819
H           16.04785470356719       14.41410148980183        3.59908989123089
H           17.84973815768378       15.90521327042055        3.80118085523519
H           20.65117818573856       14.74902740072726        3.57948313292583
H           18.46490061833703       17.80109015042929        4.05831339413372
H           19.34965516124846       20.03918512041077        4.35396072361870
H           20.44010394197584       21.75156283807802        5.50326306423114
H           20.36197831373130       22.02476477129320        3.75223611835460
H           21.60059752476319       22.82232487383467        4.72009095038219
H           23.83559475658009       20.55371923194584        5.21244315314409
H           23.55213999798560       22.09687116206424        4.40457922659452
H           23.79019970259645       20.64290296012022        3.44110861681920
H           23.32842344569943       18.51680035158103        4.07042304302234
H           22.44386144873637       16.26609744883363        3.76766391749559
H           20.01793827962318       12.82609857476317        3.33885032909868
H           19.06174231480625       10.60175619879764        3.01423357881108
