75
 energy: -12.601331967697 gnorm: 0.000373896007 xtb: 6.6.1 (8d0f1dd)
C            0.68854518602412        0.29484513668288        0.21735899516445
C            2.20063595355825        0.17325906979416        0.32446862412215
C            2.77449170806713       -0.89713947419779       -0.60473520556583
C            4.29308403140107       -1.03677454670767       -0.49572581471964
C            4.85678392607584       -2.12275387329630       -1.41177693483969
C            6.37341592356249       -2.27868999568879       -1.29943721924841
C            6.92274763716760       -3.38607434893525       -2.19859689555752
C            8.43746746357624       -3.55953849941525       -2.08682709246112
C            8.97035970808052       -4.68615672133744       -2.97199426504710
C           10.48106722758952       -4.88661083431126       -2.85170819788317
C           10.99655894687507       -6.02999426136862       -3.72547187284156
C           12.50048939337637       -6.26684432321791       -3.58754352256516
C           12.99538724548179       -7.42832120091134       -4.44899185508196
C           14.49086001585984       -7.70420243841788       -4.29489391985051
C           14.95876709055727       -8.88759460773605       -5.14050874062351
C           16.43749720794112       -9.20472231952920       -4.97653746905619
N           16.83126175854743      -10.37626650089429       -5.78305775806096
C           17.29936732203830      -10.19984971056061       -7.05209929104846
C           17.58468920208777      -11.27559386481772       -7.83721520261715
C           17.39041370903275      -12.58274365099312       -7.35558839630563
C           17.66517715966027      -13.69835809800073       -8.20789000388282
C           17.46122335338972      -15.00015766369567       -7.88588440509313
C           17.70555258834569      -16.12485900563586       -8.73396533817398
C           18.22885493783879      -16.01297322528926      -10.02633076071756
C           18.43419480359411      -17.12702119904488      -10.80560322454801
C           18.12339303881548      -18.38587355623142      -10.31882340941996
C           17.60981238950998      -18.53095317270253       -9.05202283837077
C           17.39158599444819      -17.41897670258587       -8.23541386434667
O           16.87935593944259      -17.54753640309492       -6.96456653765266
C           16.90813822313694      -12.72874069902370       -6.04230657935521
C           16.63610069585161      -11.63056412273543       -5.28354284386584
H            0.28906991539258        1.06044637581475        0.88661054845505
H            0.19781354304800       -0.64781551766398        0.46768355449804
H            0.38399890300096        0.55545509638678       -0.79819415547705
H            2.48911441215966       -0.05304303954486        1.35976029222613
H            2.67498560220726        1.13870803434069        0.10289343877596
H            2.49864550304484       -0.67110206704538       -1.64218426642703
H            2.30042219666698       -1.86270282384190       -0.38922194766931
H            4.56939943896865       -1.25215246735857        0.54381384574323
H            4.77037699017913       -0.07582423865467       -0.72395158800169
H            4.58471428271123       -1.90537408263805       -2.45204172390266
H            4.37198063257238       -3.08059128913041       -1.18594694571963
H            6.64674675855130       -2.48139708225910       -0.25657782887297
H            6.86251811294238       -1.32736753586220       -1.54241900433656
H            6.65126300096323       -3.18234055336053       -3.24175471229616
H            6.42657502418115       -4.33407958591282       -1.95647411212184
H            8.71010262738295       -3.75180222233510       -1.04184483210728
H            8.93833945837738       -2.61803897432383       -2.34356463184928
H            8.70683884635381       -4.48878374896479       -4.01842957203318
H            8.45593300494128       -5.62234092112550       -2.72199429644870
H           10.74495346587125       -5.07608822011149       -1.80395124354007
H           11.00081242740513       -3.95667582500501       -3.11309917334722
H           10.74922158964028       -5.83189810039434       -4.77571142752639
H           10.45705328972805       -6.95223204686438       -3.47654089217458
H           12.74833355157041       -6.45667342877894       -2.53596531109991
H           13.04621433414086       -5.35192273142535       -3.84879231405609
H           12.76383499479356       -7.23059212035405       -5.50288717397302
H           12.42961752732080       -8.33467419847638       -4.20004756795813
H           14.72463011694296       -7.89059261752894       -3.23951068512413
H           15.06418056653109       -6.80770879526095       -4.56078633598348
H           14.74279663092181       -8.69812257086151       -6.19883516624156
H           14.36955348538231       -9.77741378185929       -4.88816071698020
H           16.67629093352350       -9.40456010286341       -3.92773248976329
H           17.05251833303871       -8.34823945500879       -5.26807520036050
H           17.42541887086503       -9.19724654378587       -7.42031324428757
H           17.94952207433929      -11.13375320458049       -8.84007947923233
H           18.04663094795385      -13.46770377232901       -9.18564417968317
H           17.06392276840429      -15.23747007578759       -6.91615510284031
H           18.47677730725785      -15.04272020531580      -10.41792461614698
H           18.83770838717015      -17.02133960843018      -11.79954692995544
H           18.28473538912197      -19.25460136841293      -10.93626461607087
H           17.36890415251408      -19.50900296217179       -8.67462417016425
H           16.71139121506651      -18.49670150481134       -6.77061456593430
H           16.74810596222444      -13.71005707475111       -5.63360742371046
H           16.25217364361812      -11.73110222755307       -4.28385019670722
