102
 energy: -17.210210225438 gnorm: 0.000391520959 xtb: 6.6.1 (8d0f1dd)
C            2.50154502596144       -2.79401048244106        0.40569987372513
C            3.43323974658682       -1.79120673504102       -0.25598501057327
C            4.39721563027398       -1.13527809547599        0.73358172520633
C            5.32762397464547       -0.11562559037495        0.07674750560443
C            6.26979240473840        0.56199758780846        1.07150730613325
C            7.17261375332361        1.61027786079939        0.42129932352164
C            8.07143747170371        2.33044949871386        1.42624920388594
C            8.92394415875881        3.42731792039113        0.78844727084692
C            9.76041695089439        4.20083627509756        1.80743599604952
C           10.54334013782426        5.35694513381258        1.18569403642680
C           11.29055362757076        6.19395148756551        2.22281997559400
C           11.97757070653982        7.41339791162577        1.62200692358916
N           12.56568334445126        8.29702264093052        2.65226652741912
C           11.62887643054772        8.93463060115606        3.60392462629161
C           10.33140147397345        9.43286789728435        2.97790761832699
C            9.39308819722331       10.09357386545636        3.98710067992769
C            8.06772944248272       10.52680818886922        3.36101096651551
C            7.08562731692430       11.11930707926049        4.37109344863232
C            5.75031279897028       11.51002944759598        3.73761089446970
C            4.74038930394642       12.05651516757045        4.74621732291364
C            3.40318429591163       12.42812580588924        4.10526245616206
C            2.37978785447051       12.95406129103450        5.11131334313079
C            1.04370890494796       13.32146942026990        4.46560262698383
C            0.01534745729853       13.84438585133403        5.46939302005332
C           -1.30895823193038       14.21081599280092        4.81857487947701
C           13.95459098145967        8.31501179622686        2.89586979372246
C           14.88533421703066        8.10341653987828        1.86255066995142
C           16.22881132148211        8.10852160098504        2.11098598509531
C           16.73903666199178        8.29918430342795        3.40678596735918
C           15.82043079747914        8.60782023218267        4.42956700425637
C           14.45592985991352        8.58188811368159        4.16352621694008
O           16.22573201321346        8.96243895003357        5.70204051152721
C           17.56558238415278        9.16781043299874        5.96248593627129
O           17.91402245809096        9.56155477094742        7.06566902917190
C           18.55747038564899        8.87474688972862        4.92034206259852
C           19.97689253627460        9.19301487973322        5.11985574948907
O           20.34862046273647        9.79773081413883        6.11466218206980
O           20.89597127707572        8.83866183301792        4.15182659498967
C           20.50027612391465        8.06458020902745        3.07857641689915
C           21.48894952697216        7.57263161335181        2.22051657275559
C           21.17229992032335        6.71991288384698        1.19736021761229
C           19.85815229558417        6.31644867743688        1.01902288840214
C           18.87037094845777        6.80551713860756        1.83641424253052
C           19.15276581573089        7.73596368905487        2.84616297616842
C           18.14746747328175        8.30249236622215        3.72813139911654
H            1.81731895204817       -3.25366355521751       -0.31082590949478
H            1.89558378528456       -2.31900609346978        1.17931129542569
H            3.06294364354723       -3.59764208705926        0.88545850575987
H            2.84948015729317       -1.01179234274836       -0.76329216676928
H            4.00871749988294       -2.27855596063027       -1.05396654785266
H            4.99192374907682       -1.90714839951954        1.23677662867931
H            3.82642298041738       -0.64936194503057        1.53414420744237
H            4.73043662715032        0.64582033584689       -0.43935778432113
H            5.91199510398860       -0.60257449106687       -0.71318084956201
H            6.88351320312587       -0.19425211005315        1.57554299531720
H            5.68218816110200        1.03015412786072        1.87051241732661
H            6.55498759842323        2.34547569087543       -0.10869464082164
H            7.78675177239441        1.14102132634534       -0.35666419527907
H            8.71822473714973        1.60484065205939        1.93391606435847
H            7.45327260679120        2.76524857753073        2.22107381599897
H            8.27357875944923        4.12476875470455        0.24677962046288
H            9.57741535480771        2.99386637699187        0.02197691347605
H           10.44814953156795        3.51853988155353        2.32129949850236
H            9.10388762883070        4.58934360341481        2.59555121282811
H            9.85480912592858        6.00239505557832        0.62690316322049
H           11.24651663478661        4.97396622296659        0.43659742422553
H           12.02896247492333        5.57614322028831        2.74750173082063
H           10.58928807128220        6.51347730068643        3.00160599603227
H           11.27738867641752        7.99834498259894        1.02019345640499
H           12.75374872196168        7.08911826448159        0.92619424919836
H           12.14319757252804        9.77965987245181        4.07019578611458
H           11.41911741249649        8.22342613490802        4.40756701050621
H            9.80459186002463        8.60203186271446        2.49606775033629
H           10.56210525051237       10.13505129550693        2.16810133302681
H            9.88819686036561       10.95626095351970        4.44851755584948
H            9.19843052517811        9.39987354140747        4.81386999518070
H            7.60239832678041        9.66767277628532        2.86255808558847
H            8.25704998561957       11.25128029238458        2.55974940257279
H            7.53557108125017       11.99239587626372        4.85855329678784
H            6.91156822867301       10.39917398771513        5.17960307092492
H            5.32047969794582       10.64099991080381        3.22482616704992
H            5.92019243691175       12.25075632199161        2.94692599148376
H            5.16247339209955       12.93111338935718        5.25560677788750
H            4.57528712322902       11.31699394061342        5.53904805046893
H            2.99055479638784       11.55564671876603        3.58433557994451
H            3.56656978217919       13.17652225120566        3.32044050195423
H            2.79024974594092       13.82735106405831        5.63234565460636
H            2.21615981218758       12.20527675714544        5.89568803571187
H            0.63552635921451       12.44849436629347        3.94205035148761
H            1.20756771286274       14.07140213760633        3.68234165577729
H            0.43158167270668       14.71396191821859        5.99481031492192
H           -0.14379450922974       13.09030696568767        6.25142144826592
H           -1.17555800375349       14.98519689193899        4.06109429251437
H           -2.03431320158734       14.58369251290916        5.54497039568803
H           -1.75649496255717       13.34851336966849        4.32117731041708
H           14.53446446960066        7.99598696769574        0.85201657424154
H           16.91095698248023        8.04714414890797        1.28210082133534
H           13.78836464240172        8.77093155782451        4.98190290086015
H           22.50802554200720        7.86417362554462        2.40462086359821
H           21.94628345142638        6.34064094682561        0.55037204815491
H           19.61523502854978        5.60779217889934        0.24413954877481
H           17.87413572876340        6.41147431982628        1.74409936943411
