110
 energy: -20.777327473405 gnorm: 0.000780258125 xtb: 6.6.1 (8d0f1dd)
C            0.30065187988096       -0.39973534340135       -0.36661440420169
C            1.79334993793862       -0.35335532646429       -0.08324750049268
C            2.50913316238138        0.75657619223144       -0.85390530611100
C            4.01093896433836        0.81020408381157       -0.57426019922392
C            4.72170442161859        1.92490031915976       -1.34139659105944
C            6.22252633127842        1.98654713750289       -1.05817473021409
C            6.92712596937117        3.11081437794128       -1.81708827253825
C            8.42478023424195        3.18759350759257       -1.52227396897878
C            9.12148784540610        4.32478720625497       -2.26814404450507
C           10.61348190857182        4.42275275362574       -1.95446000650562
C           11.29695987281972        5.57843097361112       -2.68059219610421
C           12.76987890688012        5.72020259891335       -2.33791548892903
N           13.37016128924535        6.87060295866200       -2.99332803199546
C           14.62924694852535        6.85218055202732       -3.60019478448403
O           15.36945255048820        5.89751482705081       -3.72561270523660
C           14.86913170421191        8.22582152177958       -4.05502957168615
C           13.78317532916777        8.99474584612215       -3.72168209913669
C           13.76661009438833       10.38647914255268       -3.97005425042913
C           12.65587089012875       11.16498259643409       -3.56120537655217
C           12.67972458611320       12.51161207248084       -3.65180614230779
C           13.85975044390211       13.18313433928896       -4.06968141102606
C           13.95296212648930       14.57929890452555       -3.98280718503083
C           15.12423184450129       15.26303524935247       -4.21959137004241
C           15.11753410809229       16.73106961730372       -4.01056849310718
C           15.55749741900602       17.27742794507774       -2.80614937780931
C           15.52945627365598       18.63739088623735       -2.60336151827516
C           15.05668647369313       19.47783680630194       -3.58987269177628
C           15.01215810994390       20.97682049041596       -3.34899802261151
F           13.88840562162298       21.26355927628681       -2.65935267081141
F           16.10127548248622       21.33340719908858       -2.63569963182442
F           15.00505263001335       21.61302686775693       -4.53944232708250
C           14.59459047087265       18.94892650311399       -4.77759056940623
C           14.61996581234362       17.59003971557406       -4.98874556240072
C           16.29728857099536       14.51804193159105       -4.56260072463207
O           17.57156307614578       15.02105409491517       -4.84443531852556
C           17.69842777340968       16.41256652959068       -5.01430733869289
C           16.19338298355610       13.13531842679522       -4.64125252183422
C           14.99439704089830       12.43598315713232       -4.47379004150282
C           14.89766622357529       10.98747820340447       -4.57740735634247
C           15.91255841162427       10.12814610169612       -5.16638685297960
C           15.95420324357753        8.76420880158537       -4.78364443831028
C           17.03534162828636        7.93059858932604       -5.16186896634843
C           18.01213033814927        8.38518397362409       -5.97501791828183
C           17.92714950589538        9.68252579126098       -6.54718416746595
C           18.85146988588825       10.08937130103136       -7.52184267597684
C           18.71885965226571       11.27191819295024       -8.21131426884162
C           19.71745963022261       11.67534507586717       -9.21703533211701
C           19.34829443700232       12.40148670156416      -10.34655505966070
C           20.28028868686633       12.76246923363728      -11.29168490789964
C           21.60471458532504       12.41257251631040      -11.13028848411403
C           22.64309377456382       12.79376358005861      -12.17172725274807
F           23.05189972529658       11.66925487299351      -12.79618385473987
F           22.08992492032090       13.64621109366634      -13.05998386064746
F           23.68351818413799       13.38238804703184      -11.54503463115667
C           21.99022697417377       11.69856779129388      -10.01563510090200
C           21.06137686670855       11.33435376878786       -9.06836824188750
C           17.57894702942531       12.08949423177853       -7.94444053308830
O           17.37463858082479       13.29828825512480       -8.64899587300701
C           17.67388782688293       14.44697400060133       -7.88442213612957
C           16.67603874820304       11.69553080795832       -6.96842227301965
C           16.84893587496595       10.53905765405194       -6.20166456095033
C           12.80204410098144        8.14828083385777       -3.03343161477092
O           11.72194365540263        8.48992614262454       -2.59520476278064
H           -0.19707564053202       -1.19793117055422        0.18739543902990
H            0.10565101621679       -0.56524006216385       -1.42718419628599
H           -0.18216822726994        0.53974453411932       -0.09364764519372
H            2.25397876490268       -1.31895126997013       -0.32771480880368
H            1.96907054517555       -0.21917877971818        0.99168339545941
H            2.05536645750364        1.72418746600606       -0.61008780276138
H            2.33993937625273        0.62559392206998       -1.92899098439354
H            4.46655788367714       -0.15554322853376       -0.82180310578857
H            4.18033438499282        0.93826464269546        0.50113509011656
H            4.26223467767038        2.88947072238830       -1.09612100506576
H            4.55527195403203        1.79545505026197       -2.41710022658064
H            6.68527226216713        1.02530297827341       -1.30982630864094
H            6.38832553240583        2.11002236182576        0.01829206690509
H            6.45592969360827        4.06985874974556       -1.57204842090145
H            6.76984880924751        2.98327070230390       -2.89445948588572
H            8.90082860806504        2.23341099529384       -1.77617164966444
H            8.58083510073548        3.30648541323480       -0.44377298492182
H            8.63371923181623        5.27583552546917       -2.02436176984477
H            8.97924246743742        4.20014465590965       -3.34787296825811
H           11.10981487049613        3.47978327651099       -2.21102107320830
H           10.75415797307538        4.53588995756436       -0.87327690339568
H           10.78867379613589        6.52068631143546       -2.44259818481063
H           11.18603058833692        5.46253620659224       -3.76462401321785
H           13.33265183043881        4.82989706973795       -2.63542001484650
H           12.90936881143418        5.83828232894177       -1.25962409247999
H           11.80096640197929       10.65026017473026       -3.15650837960953
H           11.83193840953789       13.09330507324318       -3.33416658980214
H           13.08644875344680       15.13704148716598       -3.67543183914236
H           15.92218104446630       16.61951355185769       -2.03622889894907
H           15.87368072797180       19.06764704748199       -1.67790614004242
H           14.21717009834601       19.62010636460817       -5.53057724312569
H           14.25664936343326       17.17568073041299       -5.91324538433420
H           17.61088499386670       16.90946804294694       -4.04922827105969
H           16.94207856852433       16.77630503662221       -5.70923318412814
H           18.68637301592120       16.62099365341327       -5.42616730191766
H           17.09805040472646       12.58972840683616       -4.83097313558294
H           17.04460687154825        6.91850666532247       -4.79377136266195
H           18.82789141046746        7.74234208055416       -6.25667846253055
H           19.66601078092489        9.43100386851134       -7.76291218542635
H           18.31765980389244       12.68750307499864      -10.46572600560330
H           19.99559035974092       13.32397143410709      -12.16559204375093
H           23.02916653736238       11.43755198276258       -9.90237687383697
H           21.37558904374776       10.79454870967431       -8.19230137481144
H           17.20161095547294       15.31464815906388       -8.34575535852531
H           18.75519381735147       14.58637853292786       -7.85707889684426
H           17.29856738077778       14.31355740388242       -6.87078054498827
H           15.79910890937272       12.29829865915566       -6.82877129875374
