36
 energy: -7.466734859027 gnorm: 0.000757812500 xtb: 6.6.1 (8d0f1dd)
C            1.05111571217521        0.49172000874348        0.54777584722531
C            0.15892486944301        0.77031522261429       -0.42174322424428
C           -1.24691628701819        0.94075064453678       -0.21161622269542
C           -1.93543584607422        0.86762070217086        0.97299383059286
C           -3.32525738698885        1.08985740737891        0.84917240097411
C           -3.75412913416631        1.34048405184624       -0.43232390335045
C           -5.12080974768733        1.60697075878815       -0.86228113016432
C           -6.14261458039891        1.62770422781443        0.06836749187980
C           -7.46412703999641        1.88360459606109       -0.29119927012980
C           -7.79346346606061        2.12482465221773       -1.59031172918328
C           -6.80180061875360        2.11797598933115       -2.59322886182958
C           -7.13036993981666        2.36437760749569       -3.94592562802107
C           -6.17002661006840        2.35215591072055       -4.91097800075153
C           -4.83932779628380        2.09452762585439       -4.57287391788937
C           -4.49409588469132        1.85532779326144       -3.27815380720539
C           -5.45314355942770        1.85720189203913       -2.24055419204939
S           -2.37090239315049        1.29149907847104       -1.49710255102346
C            2.46045887989880        0.33183001340545        0.33297915996281
C            3.13841764969559        0.44717743557768       -0.85042373975955
C            4.53634267900916        0.23393323879045       -0.73005086231682
C            4.93109404948130       -0.04557570892061        0.53347368957633
S            3.58453656532979       -0.05246033630997        1.61484767007614
H            0.70291700191721        0.37941435503948        1.55848039176056
H            0.50784005268693        0.87738255419109       -1.43279417704356
H           -1.45804924517386        0.66384912650964        1.91865288099989
H           -3.98724671611240        1.06388632909730        1.69995216771275
H           -5.91678445555532        1.44121879119172        1.10268494488712
H           -8.23035240653830        1.89148878570002        0.46690745233542
H           -8.81481807250989        2.32416112766626       -1.86600589854129
H           -8.15650525326923        2.56273901691726       -4.20379480399992
H           -6.43356675221435        2.54237361064232       -5.93854346935062
H           -4.08505968842099        2.08588204335175       -5.34288846208600
H           -3.45943098622133        1.65782621692175       -3.03879993446482
H            2.66034997590307        0.68134474316345       -1.78849179533807
H            5.21616182876631        0.29166328758664       -1.56800987686387
H            5.94114460228877       -0.24042279987546        0.84114753030792
