108
 energy: -20.855033545310 gnorm: 0.000622091040 xtb: 6.6.1 (8d0f1dd)
C            0.22115967925640        0.27048416817834        0.13874227005802
C            1.70652425675564       -0.01060451335404        0.29874922184203
C            2.46866747952685        1.16067941065496        0.91992428544290
C            3.96301637042859        0.88369130708986        1.08316108765906
C            4.72275227010718        2.04727394183190        1.72018733142397
C            6.21549039057777        1.76437803341048        1.88825938734659
C            6.97166565243523        2.90674299087353        2.56678635138522
C            8.45905820913497        2.60768618414101        2.75206178059817
C            9.20801759567619        3.71208766637479        3.49727399196938
C           10.68417624850080        3.38334972612646        3.71584939368881
C           11.41675086402308        4.43198603973677        4.54946195578195
C           12.86515999000611        4.06517729117565        4.82663284942785
N           13.50952659635312        4.99269295757869        5.74279466544481
C           14.86237712176258        5.33993486179119        5.65861589648978
O           15.63710070711158        5.05682292869511        4.76658127384656
C           15.15438398905566        6.10202755439143        6.87785009348335
C           14.01121127997968        6.17826232831455        7.63244597066105
C           14.02087433268991        6.76447040711643        8.91977804210000
C           12.84293264077401        6.76677650325980        9.70742651422860
C           12.86952000856116        7.16565821089324       10.99697452904151
C           14.10141454433393        7.49830822468911       11.62290669414813
C           14.15721597479595        7.70004532284713       13.01011903099530
C           15.34823247634652        7.84597514662749       13.68494881085518
C           15.35425334760932        7.90282153460510       15.15875157399206
C           16.22934218199308        7.10573727890595       15.89732420418712
C           16.22721635038294        7.13902201104900       17.27066033781183
C           15.34365951132839        7.96935596886161       17.95287096627907
C           15.32099361566700        8.02950370818100       19.40960522618972
O           14.59026763680500        8.72891792023568       20.05732700732394
C           14.46520269394862        8.75911566522980       17.22392132136422
C           14.46584984204368        8.72653848000400       15.85038022994669
C           16.56684419652505        7.80710445524037       12.93950060772124
O           17.83045613752324        7.98568570962828       13.53609877317194
C           17.95718132398159        9.18814274995822       14.27193425482858
C           16.50750181410542        7.59408960276820       11.56980914173263
C           15.30247196201681        7.50028190481743       10.86579837891216
C           15.24004009979057        7.27960379926952        9.42827614161242
C           16.36225504150096        7.44122833698823        8.51812185201086
C           16.35218551164144        6.72784759814962        7.29342958368309
C           17.50646259289563        6.66935753483949        6.47368974318712
C           18.61718763571147        7.37034675282342        6.78636285603901
C           18.62046090688021        8.25954834180915        7.89506784901453
C           19.70291542438214        9.12644657365150        8.10584805837045
C           19.67829997762494       10.11416712876982        9.06447007051658
C           20.79393194570521       11.07460541841845        9.15772053808189
C           20.54951617284895       12.44691069622395        9.21723557553014
C           21.58528114861964       13.34618324694269        9.29418582057566
C           22.90365937258423       12.90187675036563        9.30888262969014
C           24.02354059670890       13.83163252236030        9.39701384624574
O           25.18109893595096       13.51209154238473        9.42206246036727
C           23.15338679526630       11.53818131318729        9.24051283597654
C           22.11878297383308       10.63755976552651        9.16310248800449
C           18.51009502801623       10.25279913365810        9.87591028307361
O           18.40651124606986       11.20967625301584       10.90486092352359
C           19.44154426881421       11.13857222908410       11.86784897812955
C           17.43676222522127        9.40155000847050        9.65544232129069
C           17.47608179758891        8.35352069639911        8.72995121487970
C           12.93838171931511        5.46044638215736        6.93301481990643
O           11.79764851839744        5.29819647547577        7.31852876549446
H           -0.31096678751932       -0.57414761076702       -0.30361672407003
H            0.05028432618377        1.13747976494397       -0.50135444897953
H           -0.24595833644452        0.48449616000817        1.10136227682644
H            2.15112456382970       -0.25696219939574       -0.67411379600316
H            1.85649787586018       -0.90717618995624        0.91403837091705
H            2.03174984676798        1.40737831214379        1.89477386893796
H            2.32547886602541        2.05920611816667        0.30822642739063
H            4.40279628076113        0.64682135898321        0.10721178929211
H            4.10473200873155       -0.02092888906496        1.68624868254816
H            4.28145535788758        2.28294884672740        2.69579774586662
H            4.58410783532892        2.95313220467887        1.11836473462800
H            6.66396043664670        1.55417468945380        0.91020012660365
H            6.34995218692664        0.84276787763828        2.46676298131008
H            6.51630609007217        3.11881683588429        3.54144661717217
H            6.84847599194766        3.82949284568850        1.98759700792997
H            8.92702746651618        2.43690497489722        1.77539722302606
H            8.57542338419340        1.66081360977196        3.29262056556912
H            8.72639677938746        3.89032459824391        4.46604386536477
H            9.11447229636328        4.65928207425184        2.95326957744303
H           11.18582469934965        3.26101330405558        2.74879947941108
H           10.76968052668759        2.40684653103236        4.20711850230077
H           10.90006822827841        4.57112991208987        5.50671405845493
H           11.37239319010005        5.41037005593417        4.05777545946208
H           13.45037492850992        4.04028719725166        3.90204620818604
H           12.93229423090608        3.06639029030625        5.26761379312655
H           11.93166276623317        6.41539119407893        9.25403595271884
H           11.97011624517853        7.15575813438932       11.58795060955724
H           13.24234669199194        7.66707713398832       13.57379838648732
H           16.91682529534378        6.46745724892322       15.36912514657712
H           16.91049611822392        6.52342974285892       17.82980659740172
H           16.00787905883634        7.40402651599945       19.96209265206470
H           13.78463825585040        9.39764635738799       17.76126872650849
H           13.78548176533586        9.34761506258593       15.29409915796355
H           17.46381801545670        9.10016984725502       15.23832258494780
H           17.51072853623068       10.00701879743185       13.70671112794224
H           19.01596963759526        9.38989158459553       14.43501793262116
H           17.43918820080962        7.49667717607188       11.04640187425489
H           17.46538777583397        6.05935456955456        5.58718942721594
H           19.48788390174097        7.31926789617809        6.15586335507774
H           20.55529245308524        9.05693783578326        7.45436863512197
H           19.52926217355290       12.79049057498406        9.21354062883847
H           21.38478517996631       14.40236296445732        9.34655448082263
H           23.81180670897972       14.89035066897308        9.44716680312608
H           24.17721558570825       11.20448596590899        9.25181148808106
H           22.32243768562026        9.58173413411227        9.11967732735216
H           19.11872752290359       11.66039868990451       12.76882634696434
H           20.34628611552779       11.61381561111608       11.49272899188232
H           19.64707398412251       10.09368767829919       12.10339277745656
H           16.54855882513145        9.56669976026386       10.23478148967955
