104
 energy: -19.767017459157 gnorm: 0.000523658119 xtb: 6.6.1 (8d0f1dd)
C            0.39925060487246        0.28206340733253        0.26212619679217
C            1.89926961404380        0.05793951768103        0.36472947837323
C            2.61726045622047        1.18172319673077        1.11332344371744
C            4.12598743980925        0.96110058677726        1.21856522062885
C            4.84439751380728        2.07729462528271        1.97664828831458
C            6.35150693922557        1.84768980945289        2.08637998842538
C            7.07288369203946        2.94855702708192        2.86377160645644
C            8.57550348565962        2.69943054949781        2.98870060096254
C            9.29921349807720        3.77368092137936        3.79961716877634
C           10.79250249128849        3.49129935878800        3.95555030882234
C           11.51264368724482        4.52478744508193        4.81811512664127
C           12.97944706602499        4.19583303601320        5.03819737093689
N           13.63547351022751        5.13245166732102        5.93684480509473
C           14.98500244725045        5.48435291243252        5.82100786934947
O           15.74720685353331        5.18325386542165        4.92305926537232
C           15.29304363059450        6.27706514099387        7.01535663616243
C           14.16138224963530        6.36580201372500        7.78780765205856
C           14.18757661155669        6.99443351242156        9.05506612680428
C           13.02423475656717        7.01735944380621        9.86344459146750
C           13.07046509683748        7.46523271737605       11.13702311579272
C           14.31054272288670        7.82865589081131       11.72835529404403
C           14.38988775740238        8.09656382721307       13.10408546174438
C           15.59242781025572        8.27661406612055       13.74974627252370
C           15.63190284402592        8.45306856053220       15.21208580166260
C           16.60465045932712        7.81529920515999       15.98308052559134
C           16.63296857696369        7.95535195406640       17.34753885312819
C           15.68238174818798        8.74353820840549       18.01383652410804
F           15.70727907612184        8.88918995871025       19.41968104572133
C           14.70575299817249        9.38137724963883       17.23367007454185
C           14.68140512931610        9.23699406679858       15.86913399514823
C           16.79685393132488        8.18806742950720       12.98543125521152
O           18.06992009002492        8.38398059723658       13.56614939896734
C           18.27225038303804        9.70465301473281       14.03014267929791
C           16.71597911678814        7.92421687115764       11.62789786004826
C           15.49725772480703        7.80538539434844       10.95011321127338
C           15.41128641478149        7.53617558240356        9.52420431875389
C           16.51670825540556        7.68163773411372        8.58994268111729
C           16.49185904883017        6.92842825467716        7.38893536311722
C           17.62951331274491        6.86030623272304        6.54793960181946
C           18.73346345444867        7.59174104242468        6.81239446549194
C           18.74299533281973        8.51897616512138        7.88921585171590
C           19.80711979818135        9.42125063523679        8.03688518797625
C           19.78200720896015       10.44794392681155        8.95419199101839
C           20.86669724522827       11.45090966591307        8.94242872939960
C           20.57997404251704       12.80883076309019        8.79261468067336
C           21.58502463065084       13.74210116582137        8.75423053627953
C           22.93193728190515       13.36088742259365        8.85635715204811
F           23.96902031861009       14.32052954909414        8.81961766102685
C           23.21244209218996       11.99260584588241        8.99494796284526
C           22.20439241240690       11.06235680121982        9.03314805711022
C           18.63778302575807       10.58379556301883        9.80112958487081
O           18.51882099550913       11.57213976792910       10.79620211579896
C           19.66869647647787       11.74282562905138       11.60385853351942
C           17.58465338439374        9.69536471410997        9.64405468717374
C           17.61915757025004        8.61748800705222        8.74971900840808
C           13.08192113269715        5.62458009379062        7.12625910407314
O           11.94790560569991        5.46657387589206        7.53490774136179
H           -0.10094904865068       -0.52780578995813       -0.27309463546727
H            0.17417033088179        1.21122983348693       -0.26407717397622
H           -0.05749703568023        0.35340087139707        1.25066156150424
H            2.33508062064147       -0.04572741479259       -0.63749172337505
H            2.10481431267074       -0.89818745477764        0.86350899217391
H            2.18969569723535        1.28620941467961        2.11762454880724
H            2.41873949215093        2.13974695606568        0.61824978121434
H            4.55490483596958        0.86308795058447        0.21421201952707
H            4.32320977615048       -0.00044954730572        1.70737455016211
H            4.41344677599052        2.17652722981066        2.98004048548485
H            4.65216789314056        3.03950808485319        1.48729288974298
H            6.78521619358674        1.76012691432735        1.08316324591370
H            6.54034659997815        0.87859777232168        2.56342188482214
H            6.63171360773326        3.04143815791170        3.86341235998554
H            6.89705429306019        3.91827130103173        2.38301871985755
H            9.02255929219529        2.62672345152627        1.99010340534854
H            8.74573512278947        1.71852335323093        3.44849320978028
H            8.83740546175841        3.85806519648235        4.79060146443406
H            9.15346258683762        4.75468454072964        3.33214803079501
H           11.26616541820423        3.43848327731429        2.96815934492903
H           10.93069753862881        2.49479669594274        4.39176741475033
H           11.01861395367414        4.60436656497702        5.79389103976304
H           11.42294119530057        5.52213220252006        4.37272384760855
H           13.52833108445894        4.19671120645438        4.09130125333434
H           13.09092021989116        3.19429120675853        5.46362698112431
H           12.10767272965402        6.64445808860072        9.43909579766148
H           12.18121511662465        7.47336941875508       11.74320208868810
H           13.48325601024426        8.09659553991089       13.68157891872129
H           17.34333480392077        7.21204143344155       15.48387719840841
H           17.38995582463953        7.45923581544910       17.92929498141086
H           13.97024457641212        9.99116045918349       17.72851621992584
H           13.93024697038306        9.74335734448192       15.28816806024804
H           17.70653498979333        9.87426891069690       14.94599350809311
H           17.94136910342365       10.40624037939180       13.26328991429618
H           19.33405754959026        9.85092217299217       14.22935787464130
H           17.63791217867723        7.80715328794048       11.09123641648850
H           17.58013883407946        6.22125106824486        5.68274177872695
H           19.59040601959756        7.53649351812518        6.16359666315733
H           20.64164744117677        9.35087084971535        7.36255404391061
H           19.55044873232361       13.11337431655611        8.71366746456497
H           21.35268379090766       14.78691365757694        8.64489845961464
H           24.24026916214059       11.68346311935206        9.07014540478089
H           22.43565238516089       10.01678724075097        9.14172703039607
H           19.36557064613219       12.15013204707155       12.56840582921374
H           20.35846646097674       12.44367116863370       11.13723908319200
H           20.16146073034338       10.78155467318832       11.75490597347151
H           16.71025867163899        9.85811802745354       10.24457566257711
