120
 energy: -22.412330278692 gnorm: 0.000519518503 xtb: 6.6.1 (8d0f1dd)
C            0.14122219967723       -0.44512194786647        0.60183166219289
C            1.62485842118039       -0.11954293403383        0.53864296854775
C            2.35385337860127       -0.88628430982565       -0.56569780989796
C            3.84552561755259       -0.56023086217782       -0.63478203440332
C            4.57483681197670       -1.31818128680782       -1.74400890732572
C            6.06225172613402       -0.97461999445714       -1.82063516064431
C            6.79116170362759       -1.70594235907840       -2.94783014311637
C            8.27018523910633       -1.33170173904751       -3.03929033863244
C            8.99319341609648       -2.01562083785723       -4.19895518304276
C           10.45770503708826       -1.59586413087126       -4.31496343065815
C           11.16554002204549       -2.21863958273393       -5.51565442446293
C           12.60054654006620       -1.74551622666061       -5.67335881165516
N           13.22346275891872       -2.27320385064298       -6.87601818040662
C           14.53797941227362       -2.75074295972735       -6.92497823757893
O           15.30840820745330       -2.87685602399074       -5.99206690505544
C           14.79211848410658       -3.06172248897784       -8.33402121725037
C           13.66223757112805       -2.76918755516424       -9.06098470020283
C           13.64640730476857       -2.88716201812194      -10.47115781706946
C           12.49532165153429       -2.50523312207606      -11.20265123163094
C           12.51611757407080       -2.44933789701777      -12.55209295017267
C           13.72339145775114       -2.68189072111861      -13.26469605814609
C           13.79373063393470       -2.41578874071836      -14.64046635235584
C           14.98015857512170       -2.45733959481588      -15.33949517772216
C           15.01377505672208       -2.01747752127695      -16.74689685066122
C           15.97184043657867       -1.10187825548090      -17.18717299888969
C           15.99486740555013       -0.67376150738429      -18.49006247646819
C           15.05483212293788       -1.13600107275800      -19.41788907007432
N           15.07771976735745       -0.70006979684115      -20.75342496219864
C           16.05383351140853        0.28313776922397      -21.22070700535566
C           14.12748624654450       -1.21034758334342      -21.74077764464864
C           14.09065825534477       -2.04691390476894      -18.97156564420506
C           14.06853150487377       -2.47390832460603      -17.66802139545436
C           16.17570834884822       -2.80821281272233      -14.63851501323172
O           17.42876740308851       -2.92102439582154      -15.27551790169626
C           17.42849187293571       -3.77275259100453      -16.40648084837538
C           16.10377748568110       -3.05892576800719      -13.27726917760181
C           14.89699081245733       -3.06618350317494      -12.56445767026132
C           14.82048840580161       -3.32638231702584      -11.13576713810424
C           15.89749998707417       -3.89784849683518      -10.34060993075714
C           15.93306719948559       -3.62925850130188       -8.94802675526602
C           17.06711449058017       -3.96901037782649       -8.17006317072333
C           18.10265842756702       -4.64821718844077       -8.71025539743822
C           18.03278946168631       -5.12481499656628      -10.04738910807619
C           19.01562264654704       -5.99487801568537      -10.54353964280708
C           18.89766552274586       -6.61592452333604      -11.76755549510188
C           19.90562885824615       -7.60117966296474      -12.19692692832397
C           19.52325041412096       -8.81065627661410      -12.78016145382789
C           20.45742095210943       -9.73676176041172      -13.16883989702242
C           21.82497292767713       -9.49999547938736      -12.99105743087387
N           22.78392550848164      -10.44610775233122      -13.39046848602337
C           22.39640447824085      -11.71678066266547      -14.00170949912945
C           24.21461514791148      -10.21220648482359      -13.19914178724024
C           22.20569854890033       -8.28929351243265      -12.40158965439217
C           21.26972812527102       -7.36507959411472      -12.01168844972030
C           17.73455438184388       -6.35644809870300      -12.55688408965996
O           17.55084725132562       -6.92646233188716      -13.83613551337534
C           18.54649807457405       -6.54864025799990      -14.76773821085630
C           16.76578037349761       -5.49718302783558      -12.06483420758842
C           16.90534349165325       -4.81165236400735      -10.85132133551451
C           12.63959513182619       -2.24956779261958       -8.14874223618118
O           11.51993820345134       -1.87252128104169       -8.43889586769222
H           -0.36727242515279        0.10891196728540        1.39389306498716
H           -0.02209547756843       -1.50807566281165        0.78799700506599
H           -0.35637783174942       -0.20344400813187       -0.33903316727562
H            2.10068714374744       -0.33535079491605        1.50431220999769
H            1.76878880046273        0.95832208571163        0.38678272338901
H            1.88492327253881       -0.67164198766048       -1.53356311436073
H            2.21868322126603       -1.96437545595957       -0.41705636091031
H            4.31595436763730       -0.77867233516669        0.33145289532792
H            3.97901958981294        0.51877679497514       -0.77852559588583
H            4.09830980990310       -1.10575979702479       -2.70864290672783
H            4.45180300738850       -2.39795016956707       -1.59713351954876
H            6.54362268882659       -1.20101149766334       -0.86170320838042
H            6.18130555979418        0.10788765565970       -1.94986124735005
H            6.29845399548195       -1.48999980455526       -3.90361217820172
H            6.69037231130463       -2.78973061073539       -2.81368148626038
H            8.77279399050907       -1.57390964745146       -2.09515389934802
H            8.36545068065133       -0.24384069971633       -3.14108077079785
H            8.47324148035859       -1.79076871802894       -5.13803899541985
H            8.92614526718865       -3.10468085160515       -4.08956694308578
H           10.99322224354040       -1.85425077176259       -3.39362272602301
H           10.51925446181014       -0.50309879459583       -4.38380481750979
H           10.61502178304705       -1.98454313022800       -6.43502971375091
H           11.14600577503775       -3.31222338341066       -5.44353193907407
H           13.21082438203280       -2.04486649987708       -4.81541915076638
H           12.64479906265920       -0.65377061857769       -5.72621311276084
H           11.61199391687123       -2.23502349431213      -10.64944828098297
H           11.63837592927336       -2.14811577195070      -13.09746869637224
H           12.90256917001711       -2.09766176828616      -15.15097355673203
H           16.70269904919729       -0.74277060618401      -16.48287989687903
H           16.74965887903992        0.02387183247970      -18.80566351953802
H           15.99478458624125        1.18529204095022      -20.61469489881486
H           15.86827048950528        0.56096747056710      -22.25621022499140
H           17.05925176298554       -0.12805819749026      -21.15170050532626
H           14.20496851230433       -2.29394705330925      -21.80795206467984
H           14.32369026094852       -0.79587603549379      -22.72747616164695
H           13.11218273403168       -0.94225060492010      -21.45449851311098
H           13.35417677446443       -2.41597906727880      -19.66254308881719
H           13.32422817314098       -3.18002303822241      -17.34245320728070
H           17.05102539215383       -3.24730316860294      -17.28179501110177
H           16.80535117789303       -4.64530600442277      -16.20696178015464
H           18.45085032469573       -4.09275619223724      -16.60789801356290
H           17.02574081967312       -3.25114001133175      -12.76286913250179
H           17.07046339623889       -3.68489685992130       -7.13144127103118
H           18.95835568489426       -4.90353814749786       -8.10934674584144
H           19.85750528677666       -6.23241728436072       -9.91861643536857
H           18.47407070133985       -9.00071215254257      -12.92897014767430
H           20.13513581380671      -10.65910838270446      -13.61760837728999
H           21.79072082731149      -12.29523414359855      -13.30655553033272
H           23.26949292076620      -12.30967788524874      -14.26635189164121
H           21.82320216794743      -11.53542247787277      -14.90899898268298
H           24.52225796887851       -9.31913492255229      -13.73995204820042
H           24.80377666403602      -11.05020582358295      -13.56584784947774
H           24.43279994805410      -10.08132455324813      -12.14086705214090
H           23.25006279379154       -8.08042816082644      -12.25406874647625
H           21.58167504861816       -6.43416926719410      -11.57058380911823
H           18.18826783509035       -6.76260529853815      -15.77476889142162
H           19.46485188666283       -7.10662247318349      -14.59072355606533
H           18.74548615102692       -5.48114703250962      -14.66744319299173
H           15.87886780649895       -5.36111752015147      -12.65377117972322
