112
 energy: -21.145184562221 gnorm: 0.000511123811 xtb: 6.6.1 (8d0f1dd)
C            0.36134020148647        0.34252165674912       -0.03164213279022
C            1.86104569019671        0.09590567028438        0.00140431437485
C            2.61142940899728        1.12166685977614        0.85174106569712
C            4.11958180217729        0.87703245372774        0.89298996285639
C            4.86864771508683        1.90271278684596        1.74331318284069
C            6.37571403376765        1.65266166321651        1.79076450982917
C            7.12445516808030        2.67171771912453        2.64915780395330
C            8.62748229765261        2.40401585750474        2.71823567659615
C            9.37235551694380        3.40490212693339        3.60014155945276
C           10.86478944422871        3.10076657330451        3.71986126520826
C           11.59233980122733        4.06530729761251        4.65270882131285
C           13.05495211322737        3.71193337712380        4.86395919865895
N           13.69724492484537        4.57500673317719        5.84311803543305
C           15.04336590186821        4.95153656859483        5.77301840729700
O           15.82677961785200        4.71433106616838        4.87418245083202
C           15.31574805186754        5.68457661264734        7.01356711240473
C           14.16791498152463        5.71425546146920        7.76693933317275
C           14.15123063073249        6.28999555471604        9.05916887426670
C           12.96956538151045        6.25611674381231        9.83966413331891
C           12.97787520008713        6.65257059078586       11.13084105753340
C           14.19634439516582        7.01844748493580       11.76444887137533
C           14.24094637584910        7.21565170265215       13.15299384498683
C           15.42474492079919        7.38874736997057       13.83504828895211
C           15.41139632225327        7.42597347722011       15.31087445336034
C           16.20875338908293        6.55412913745611       16.05356005996558
C           16.18302883387408        6.57345167964596       17.42402033645635
C           15.35562161852402        7.46041677135249       18.12066333216242
O           15.39825723442697        7.42081095057280       19.51502850934968
C           14.54951879264080        8.34046945547755       20.15763131569697
C           14.54667607509101        8.32351385517718       17.37315650560899
C           14.57302738967074        8.30251104826267       16.00157234479949
C           16.64878163733762        7.39200678678843       13.09599045400602
O           17.91051467528241        7.59290343034834       13.68813825974673
C           17.97745443705550        8.69293439911585       14.57620052702188
C           16.59972745975769        7.19042623047090       11.72540468826333
C           15.39988586090567        7.06025959549712       11.01401528675646
C           15.35000647224981        6.84277416600743        9.57652705016023
C           16.46690624863968        7.05399234985202        8.66914483713744
C           16.48901488623824        6.35143164629397        7.43798357693211
C           17.64549214410682        6.35480730550170        6.61946941428429
C           18.72284682782721        7.10429364047496        6.94040414861883
C           18.68321123097239        7.98374522965019        8.05620909129322
C           19.72425588069743        8.89833494085050        8.28075972193072
C           19.64607585349013        9.87737403754426        9.24585517051799
C           20.72382991924573       10.87274764075534        9.38369896323479
C           20.43090946882466       12.22570662697798        9.55706430660423
C           21.43225269905974       13.15364634227384        9.68117095582345
C           22.77838390874835       12.77684881545916        9.63710487634298
O           23.73463334341869       13.78293973542156        9.78230103808684
C           25.06891357002434       13.33785741315896        9.75359005718188
C           23.07051181432572       11.42084095440767        9.45427310432596
C           22.06646192549723       10.49408381280553        9.32854995613808
C           18.46182479507190        9.96104362458068       10.04145148204599
O           18.30955392464998       10.91967485388280       11.06740965231518
C           19.24322703938998       10.76986116371504       12.11957093398617
C           17.43644032282924        9.05711233407835        9.81814221761123
C           17.53399377879503        8.01557549703971        8.88822752887827
C           13.11346118518651        4.99471967465283        7.04555802366546
O           11.97323236729560        4.80427518937299        7.42193441222782
H           -0.16282553304782       -0.39640011051120       -0.64138057322560
H            0.13244764846027        1.32786549622761       -0.44109373749985
H           -0.06702046736291        0.30377294821170        0.97133764661368
H            2.26782741620278        0.10353802665602       -1.01824430118833
H            2.06964798955917       -0.91238422035240        0.38227655855595
H            2.21009853350263        1.11753038149827        1.87221771791133
H            2.41244370015555        2.13087870669449        0.47186965121876
H            4.52161519678851        0.88063978112550       -0.12715901672270
H            4.31832286400569       -0.13185799056023        1.27387046336110
H            4.46347468672515        1.90155645637787        2.76229517410555
H            4.67418911545251        2.91172383241568        1.36062291413050
H            6.78313352863537        1.65777774439050        0.77281667453891
H            6.56806131171582        0.64174610967781        2.16948595986624
H            6.70567465244928        2.67556323687509        3.66273357903923
H            6.94631386382205        3.68272480133352        2.26361861375843
H            9.05282270469443        2.41294562384826        1.70762194721664
H            8.80084423556959        1.38754736392236        3.09147232908128
H            8.92155863541739        3.41692257168216        4.59980218024883
H            9.23066803224626        4.42049964448925        3.21183529008444
H           11.33129111474514        3.11907769171624        2.72785853200925
H           10.99964322935261        2.07409529362360        4.08065258063414
H           11.09145552118953        4.08279250307833        5.62808970190561
H           11.51357737268222        5.09167395048338        4.27631072839200
H           13.61711022463957        3.78475664036433        3.92769154236988
H           13.15761256425822        2.68007886839218        5.21213858743983
H           12.07054526609348        5.88257919158071        9.37982266352278
H           12.07596493005147        6.61591695078397       11.71708589628282
H           13.32514157747987        7.15600662602065       13.71316685452226
H           16.85214968597226        5.86821326358952       15.52960666749920
H           16.80309119894745        5.90456107771451       17.99383853010590
H           14.67393223691799        8.23048706723218       21.23544350957494
H           13.51113866215392        8.13137576457266       19.89763233298779
H           14.81935026666431        9.35813844617742       19.87285668553801
H           13.89567032447220        9.01378057833057       17.87749786667632
H           13.94972198258390        8.97537604734486       15.43819121403224
H           17.64606704282598        8.39957919870885       15.57065223971513
H           17.35417704259049        9.50677459970660       14.20362662158959
H           19.01246099879366        9.02847228560159       14.64304439404601
H           17.53535319086505        7.12895955679555       11.20336565409196
H           17.63278122433453        5.75433930612001        5.72574183772520
H           19.59518239906473        7.10092774690328        6.30998664939251
H           20.58502149841880        8.86909613857813        7.63746601103869
H           19.39887719674212       12.52860478641306        9.60317383500207
H           21.20109156247257       14.19475220905924        9.81998926441479
H           25.72357271357824       14.19918399652738        9.89073075882411
H           25.28655811177650       12.87812723381201        8.78882305438809
H           25.24203415947618       12.62947662264606       10.56465259271812
H           24.09455267476821       11.09772005777812        9.41410828875962
H           22.30804027338846        9.45288834978324        9.20202771525093
H           18.89291269570145       11.33261565041030       12.98498276702524
H           20.21904482680250       11.14810676571182       11.81760459951692
H           19.32561153375964        9.71339999480316       12.37708546873806
H           16.53863967378664        9.17511139218670       10.39420305299157
