76
 energy: -14.767046399585 gnorm: 0.000333441022 xtb: 6.6.1 (8d0f1dd)
C            0.75531690870175       -0.13073021148535        0.03202638915205
C            2.27548184016723       -0.12593049059083        0.03990947431921
C            2.86655229854897        1.04694474179620       -0.74246438890047
C            4.39516545182491        1.06606647933015       -0.73914508466406
C            4.97226622158498        2.24359569378806       -1.52331477263385
C            6.50048192582041        2.28309275532527       -1.52575749979208
C            7.05222274484411        3.47024496288308       -2.31360585156173
C            8.57885908175688        3.54135461206537       -2.32864112705202
C            9.09349252833288        4.74082671581816       -3.12218634246094
C           10.61660221274487        4.85291730980353       -3.15429000921346
C           11.08394123186091        6.06648499260225       -3.95274573391720
C           12.59105063997914        6.23541638065371       -4.00089173452032
N           12.94100038515221        7.41654518650332       -4.76460779045214
C           13.29067935915379        7.24912482840021       -6.10935397178570
O           13.36979755657854        6.13817567396778       -6.60433783832088
C           13.53583564605943        8.45495313365407       -6.90117838546231
C           13.89858225287169        8.35382964538679       -8.22455064434981
C           14.10616971468724        9.48191770835689       -8.99384134447624
C           13.95620190430931       10.76258238670013       -8.47025167256264
C           14.15322309013714       11.95631588786393       -9.27780619727652
C           14.50722724114430       11.89015374550551      -10.62218923454030
C           14.68281656649784       13.02863245938944      -11.38403777934519
C           14.51307513944125       14.27967161547045      -10.83737029382932
C           14.15580217171233       14.40242643572576       -9.47382821885934
C           13.97799567743701       15.68143020662260       -8.89539532249379
C           13.63185539357719       15.78327201308931       -7.56780570926194
C           13.45237877353244       14.65525001479776       -6.79154233691862
C           13.61178243739021       13.37476344837016       -7.31308399623575
C           13.41384787217896       12.18100733659100       -6.50602724082666
C           13.04768380902636       12.24737123224384       -5.16510939205977
C           12.84441446952735       11.10856568832611       -4.41084365163554
C           13.00026344566646        9.85697599732086       -4.96060859684870
C           13.37913938110671        9.73434634291012       -6.31801367415072
C           13.58751129814741       10.89857264513719       -7.10116404672755
C           12.75056538335652        8.66176583781743       -4.15486364624629
O           12.36857401065002        8.74380100737454       -3.00024640518581
C           13.97356931040770       13.23853773212418       -8.68398449135695
C           14.15972743170204       16.88669803225654       -9.70779760143982
O           14.00454509594440       17.99665984881505       -9.23006650780298
N           14.51217540953221       16.70523597168222      -11.03769811814970
C           14.69924704986613       15.47830757324009      -11.65858761635740
O           15.00415619455952       15.39363026249102      -12.83508762449656
H            0.34459655235370       -0.97234075317757        0.59321958578884
H            0.36637384669453       -0.19352692615903       -0.98547697981185
H            0.35579573767676        0.78395549413714        0.47280357410099
H            2.65844722360912       -1.06746470889147       -0.37415907493433
H            2.64767748900554       -0.09722762841668        1.07201965505986
H            2.48696780295371        1.99012902703085       -0.33217519500813
H            2.50192402607607        1.01980592716487       -1.77605694646073
H            4.77745310216910        0.12505817985171       -1.15159847383605
H            4.76173586640653        1.09556200994264        0.29357946137283
H            4.58270736598897        3.18268927619428       -1.11289775055873
H            4.60497969209877        2.21143281713992       -2.55585621860294
H            6.89478172422700        1.34804731083703       -1.94030361528043
H            6.87145940510677        2.31869313468262       -0.49485843775845
H            6.64771992872849        4.40207053961516       -1.90078912314865
H            6.67809952822984        3.43115204718638       -3.34356153325485
H            8.99007576132569        2.61530738841422       -2.74704372733804
H            8.95841216934823        3.58612916356319       -1.30117647569857
H            8.66990365492343        5.66238179304631       -2.70553776379134
H            8.70991861401645        4.69176496463613       -4.14817988596404
H           11.04946389357971        3.93985312937726       -3.57906106992566
H           11.00705877451314        4.91006172533811       -2.13164034468319
H           10.64394205167513        6.97916132055481       -3.53275545425530
H           10.69996668960125        6.00953779910047       -4.97804100952913
H           13.07385702955253        5.36878728873849       -4.46448811809082
H           13.00773766974805        6.34416998319386       -2.99453944118299
H           14.01061265567730        7.37006703435708       -8.64841919325037
H           14.38501489062975        9.35296895345842      -10.02303763519650
H           14.64956400177625       10.93505761736831      -11.09257026266179
H           14.95543011516801       12.95971906638707      -12.42387058805793
H           13.50251685234144       16.76722438973380       -7.14897651939396
H           13.18159756556009       14.78408850381143       -5.76014134965878
H           12.91043643007943       13.20255190956796       -4.69349674996828
H           12.55300662746090       11.17820420423010       -3.37635525384608
H           14.63760870415776       17.53284417786398      -11.60030205447450
