90
 energy: -16.978297343999 gnorm: 0.000469106524 xtb: 6.6.1 (8d0f1dd)
C            1.52799333667920        0.16138956601213        0.34617088623113
C            3.03947642891951        0.31772896861467        0.29718223371488
C            3.56207996430211        0.57630700728042       -1.11642686527907
C            5.08102014904613        0.73778972108392       -1.17495941654190
C            5.59878655916364        0.99221634444891       -2.59033608620775
C            7.11804876855481        1.14813475901639       -2.65564353086146
C            7.62961651553559        1.39192467941639       -4.07513433716785
C            9.14953076906274        1.53335939637526       -4.15150667089070
C            9.65205906924181        1.76416608196089       -5.57592854047502
C           11.17180402925962        1.89135311044719       -5.66559999039606
C           11.66177236202910        2.10751676445158       -7.09495522135237
C           13.17150230210523        2.21420209265611       -7.20607026455259
N           13.58269964965443        2.38864132099303       -8.58526125614189
C           13.86399318350299        3.68401624680349       -9.02080779098060
O           13.79049748629682        4.63866470621249       -8.26382126620019
C           14.24175185386543        3.84492310607671      -10.42040711640484
C           14.56811177560785        5.09534508788706      -10.89422938883078
C           14.93911235023262        5.28066944962711      -12.21672387463841
C           14.96603724288004        4.21596724890858      -13.07531112234614
C           14.61022697501165        2.92901251366578      -12.65163401719492
C           14.58723633075177        1.83692552957249      -13.57860861743986
N           14.71039157029145        2.04968480088975      -14.96565490438758
C           13.76069254655657        2.88399829102479      -15.74269826550046
C           12.58546852618549        3.34506694288209      -14.94058473382373
C           11.72048093092380        2.40437446911890      -14.41641726987423
C           10.69181260489696        2.80706772508377      -13.60251849965621
C           10.56639280708890        4.14907160286573      -13.34862069641894
C           11.46584423061001        5.01518497311259      -13.92236721660124
N           12.46422366919687        4.65080348204470      -14.70765553170672
C           15.99821309370172        1.84606312024267      -15.66360688367912
C           16.89353245895840        3.02446208533785      -15.46576346418323
C           17.86945871187074        2.97889698226098      -14.48797899951597
C           18.63337965960021        4.09214258006303      -14.24165068841513
C           18.38151152039176        5.21764480339381      -14.98403637881876
C           17.38189737507412        5.17568538840016      -15.92603658859748
N           16.63090611402261        4.11757502647607      -16.17763699013809
C           14.31235112709056        0.52230936896232      -13.08084024152352
C           14.30318006476603       -0.57143792027565      -13.96126299063121
C           14.02513689395260       -1.83297084835390      -13.51953709458139
C           13.73353503969783       -2.04911429975595      -12.17480441326866
C           13.71613793908308       -1.00224699753668      -11.30016037402179
C           13.99644957636934        0.31653451127045      -11.71201952181562
C           13.95115804044829        1.42397115264958      -10.81358869335519
C           14.26622607844157        2.71893830567314      -11.28808193380498
C           13.58138890624086        1.25625702114716       -9.41449858515530
O           13.25978628804212        0.17585968386183       -8.93731981728022
H            1.16687914690207       -0.02348163274001        1.36013311904315
H            1.19695501950417       -0.67112990740436       -0.27710587692208
H            1.02638558052085        1.05779304189771       -0.02261828453598
H            3.52550202120037       -0.57830669775511        0.70495656355282
H            3.35618427605184        1.13680680632260        0.95608076609336
H            3.08084991490376        1.47139784110713       -1.52852159047322
H            3.25347581039710       -0.24217472569507       -1.77785002468930
H            5.56267597052215       -0.15659140841647       -0.76193544254059
H            5.39045865776106        1.55807608714563       -0.51627887663859
H            5.11883407820113        1.88799971249218       -3.00242517261792
H            5.28503440131028        0.17324392477711       -3.24873760588753
H            7.59804396493694        0.25424563180282       -2.23975549516591
H            7.43339629662793        1.97096971678458       -2.00304920453648
H            7.15517666787353        2.29023235616181       -4.48834785112887
H            7.30438873309352        0.57283719896644       -4.72795516275537
H            9.62433797021017        0.63724236400097       -3.73423472629447
H            9.47733950688042        2.35692667900254       -3.50590637107125
H            9.18267920661529        2.66423053441011       -5.99084875466959
H            9.31474673818004        0.94414416312053       -6.22127859425623
H           11.64247200874173        0.99331960824515       -5.24804362538605
H           11.51335286666074        2.71657070051408       -5.02951273855331
H           11.20574572277467        3.01079842393347       -7.51698003074933
H           11.31904820263340        1.28604457203969       -7.73568995837045
H           13.65580229990632        1.31120580484754       -6.82082007182785
H           13.55083189873672        3.06010039627058       -6.62324539864094
H           14.53622044548900        5.92691890937126      -10.21102405910497
H           15.20434629355062        6.26413788876710      -12.56825534286581
H           15.27227576377586        4.35966858400962      -14.09578104486805
H           13.41717236220263        2.30710801073503      -16.60474556446805
H           14.29575031885924        3.75272659316584      -16.13400362631765
H           11.88376818456180        1.36054784903428      -14.62223264511258
H           10.01322466226767        2.09142425157866      -13.16780226337578
H            9.77987988195901        4.51664395467795      -12.71016045509569
H           11.37669952905052        6.07293598654221      -13.72720063107787
H           15.80946810305208        1.69492800611446      -16.72887000830465
H           16.47006548066955        0.93509498832520      -15.28824879452845
H           18.00989041432975        2.07879042972351      -13.91457745302200
H           19.40097402032901        4.08401501510421      -13.48510631962969
H           18.95371347558556        6.11766335968358      -14.82913474718711
H           17.17114893611621        6.05812973028222      -16.51057288622885
H           14.51082112610115       -0.39751909687445      -15.00215270366118
H           14.02741050969993       -2.66137091332061      -14.20879861443071
H           13.51428152314123       -3.04580995369964      -11.82824770960386
H           13.47824913291736       -1.17692073737416      -10.26755169134069
