127
 energy: -22.726478246790 gnorm: 0.000334389728 xtb: 6.6.1 (8d0f1dd)
C            1.74269536485269        0.90313090150807       -1.16440251606565
C            3.20758966530844        0.56735008279442       -1.39505532529732
C            3.62596275817425       -0.74271797886691       -0.72653789831354
C            5.09503808710905       -1.09657994165891       -0.95957432990602
C            5.50563720367461       -2.40072621158843       -0.27648029347547
C            6.97015648341070       -2.77301050587611       -0.50940812504355
C            7.36844625177583       -4.06477982746348        0.20368437864380
C            8.83116596332552       -4.45545228072162       -0.00948053789042
C            9.21342950900508       -5.72166354782135        0.75598422460297
C           10.67698605351955       -6.12754500368659        0.58384610695575
C           11.03624083376038       -7.35534266747718        1.41722768871383
C           12.49833271953090       -7.76235842942255        1.31480079544605
O           12.80525691906172       -8.84356567464059        2.20585750942383
C           14.18388560517732       -9.12760315751837        2.32003553741412
C           14.66567382901159      -10.26272849758019        1.65283325469198
C           15.99449481633484      -10.59726917485375        1.64422118194211
C           16.93076230802484       -9.77115526329677        2.31274919449614
C           18.30104643795810      -10.10998432674243        2.31607597553551
C           19.19803604739635       -9.30308998542240        2.99101964885206
C           18.77655978973000       -8.15880959192246        3.62394009198810
C           17.43855262102718       -7.75622413212084        3.61870067449012
C           17.00692494235869       -6.52697800386160        4.23889822126563
C           17.92634261389350       -5.54059011490625        4.71024785090751
N           19.29323256425442       -5.54272498440509        4.36779860772501
C           19.79157623039814       -5.06127383600847        3.04741492996001
C           21.20489755272083       -5.60271257280966        2.75183879281845
C           21.74699412543397       -5.05806037368648        1.41778882715113
C           20.78593145047816       -5.38102333207140        0.25781390218069
C           19.37176612833652       -4.84282526729267        0.54698249188355
C           18.83799218279919       -5.39362638548142        1.88094419462027
C           17.43665952707789       -4.45729992850097        5.46151528455347
C           16.10195776680448       -4.27233207994182        5.69621064405343
C           15.16018051722973       -5.19304299059176        5.17042366475877
C           13.78203704274941       -5.00239688039697        5.39788826987569
C           12.87937541257385       -5.93119200329819        4.91339011652429
C           13.30717997029788       -7.01047888321824        4.17871653302953
C           14.65461051887144       -7.21251673938186        3.87389723294597
C           15.09444584645560       -8.31124165426061        3.04969640693389
C           16.48265029216298       -8.60672287197178        2.99121404704672
C           15.61297324456426       -6.31173052700912        4.42149221367608
C           13.30838076156227       -3.83663097068002        6.14226903226263
O           12.11515392449345       -3.64852346865365        6.31629771835716
N           14.27098460004753       -2.94493559006053        6.63771444810033
C           13.82240307581134       -1.75638176801141        7.36795785142840
C           12.98732242705101       -0.83850539824714        6.45756052993418
C           12.48662119294976        0.40304081569309        7.21524566204589
C           11.69192672595029       -0.00223769839761        8.47097471473333
C           12.53592322817989       -0.90491736477417        9.39082642898649
C           13.03885764513605       -2.14656489244952        8.63400463665739
C           15.64966660799616       -3.10625189462818        6.45309959488274
O           16.44919731847797       -2.29957980147047        6.89838757751253
C           18.76803273884390      -11.30965528370799        1.62512527070025
O           19.95054520718730      -11.61237396168268        1.62585942579422
N           17.81140220274792      -12.09407516772479        0.96485270021982
C           18.24730364123654      -13.31699799605691        0.28590039279514
C           19.24365465454963      -13.00267515385410       -0.84372035843027
C           19.71504187997362      -14.28628496293673       -1.54907831555313
C           20.31766186353679      -15.28191783717206       -0.53928698382390
C           19.31612539990751      -15.60388682180111        0.58635897820135
C           18.84545480121889      -14.31882904638535        1.28898662978201
C           16.44390433032815      -11.79466480332723        0.93602044006535
O           15.65268075090790      -12.50743505296482        0.34092769611740
H            1.45593539556440        1.84172791926574       -1.64338851455682
H            1.52217405677535        0.99737106747807       -0.09970936659868
H            1.09177279555832        0.12105573044698       -1.55908887522662
H            3.84461075607016        1.38198719844902       -1.02647962608375
H            3.41684337392632        0.50831818363570       -2.47112086861279
H            2.98966181015375       -1.55936773431479       -1.08818990076976
H            3.42817852103406       -0.68469096402977        0.35054417545214
H            5.73244196286590       -0.27792662657938       -0.60473538364809
H            5.29197963447060       -1.16564286655582       -2.03601771048700
H            4.86010046042361       -3.21645144915209       -0.62362885128075
H            5.31334460848285       -2.32586757186107        0.80060869550970
H            7.61688000935215       -1.95286447789217       -0.17549536389662
H            7.16189141795750       -2.86879378052626       -1.58474332884315
H            6.71802772431605       -4.88321770838464       -0.12755402524320
H            7.17092720041922       -3.96334985807837        1.27765006024791
H            9.48231201659209       -3.62846332649392        0.29770433637426
H            9.02787519578299       -4.59323523625380       -1.07927721426068
H            8.56408432992216       -6.54926530448130        0.44635028706159
H            8.99993944793448       -5.57850864556346        1.82214488532639
H           11.32709202828714       -5.29006224277217        0.86417308032969
H           10.89188308300581       -6.31740897026594       -0.47440643265536
H           10.40491367233481       -8.20401164627796        1.13134777456853
H           10.79217631151357       -7.16544627856296        2.46822906792070
H           13.15738209373801       -6.92116378126200        1.55474177409451
H           12.75081176167864       -8.08407486885915        0.29875327946632
H           13.96868134554117      -10.88758540479410        1.12552470530586
H           20.23627732063565       -9.58783987159324        2.99998333333542
H           19.49489569139668       -7.55180908263093        4.13901688534774
H           19.91700785877033       -5.14841993758895        5.07141712620381
H           19.85333527906755       -3.96251272661423        3.10746134273025
H           21.16017835520743       -6.69584943635063        2.71100357448664
H           21.88087713701202       -5.36787648892016        3.58335078977409
H           22.75094250456619       -5.45570083860298        1.21471531067473
H           21.87253358032249       -3.97112454401618        1.49380374456740
H           20.73806029291805       -6.46805373661017        0.11952700478080
H           21.16987387941684       -4.98080008103512       -0.69052387269488
H           18.68562447483431       -5.08469344137635       -0.27642123303668
H           19.40130325568034       -3.74739049939573        0.59214802639798
H           18.73502480550953       -6.48003976171089        1.80656101729506
H           17.83101096469417       -5.01510885758384        2.09582631278675
H           18.12581574126149       -3.72120039479061        5.83287220777615
H           11.83297921529230       -5.78487145471849        5.12036802793358
H           12.59005913199291       -7.73367203967676        3.83913622969021
H           14.73227707191843       -1.21532817171085        7.67205559939805
H           12.13699119602006       -1.41726930770456        6.08052282054248
H           13.57198266338396       -0.56200384867135        5.57131171983761
H           11.88051914772080        1.04169645505517        6.55813394610402
H           13.34563258871407        1.01737520781896        7.51109898091942
H           10.78724132105008       -0.54242473158909        8.16659826771682
H           11.33693241323609        0.88533599611445        9.01239727879109
H           11.96379534020148       -1.19802494040602       10.28173610270439
H           13.39567017268383       -0.33763748522232        9.76740637317465
H           12.19128446971102       -2.77073292891397        8.33037303955289
H           13.66038716564287       -2.78518338961646        9.27395240154286
H           17.34457596971400      -13.76458843973509       -0.15908619764144
H           20.09998320226281      -12.47832254794871       -0.40555596377835
H           18.79417308382418      -12.29431777477285       -1.55071196850969
H           20.43678053609703      -14.05068963032716       -2.34317261229389
H           18.86276789156869      -14.75426351482195       -2.05649747662802
H           21.22531491970649      -14.84848695589463       -0.10217058267727
H           20.64433424225085      -16.20083915174338       -1.04509692443973
H           19.75432503791885      -16.30428413229858        1.31054161345783
H           18.44808012328573      -16.12386499235652        0.16329776042205
H           19.68958272816076      -13.83347534043456        1.79132463888670
H           18.11596603797791      -14.53397977559966        2.07977515632417
