146
 energy: -25.390171514567 gnorm: 0.000624429125 xtb: 6.6.1 (8d0f1dd)
C            2.79926404486025        1.38544062897616        1.22717947151421
C            4.20000448994138        1.56070296992201        0.66260962686728
C            4.49607633089359        0.60419670086369       -0.49312081933865
C            5.90549939533237        0.76763938254511       -1.06209542492860
C            6.19789220304412       -0.19450675412813       -2.21303819438885
C            7.61135336802212       -0.04721885894902       -2.77614177552633
C            7.90009492200844       -1.02433251835935       -3.91509824029431
C            9.31994707219890       -0.90494741924595       -4.46844346456111
C            9.60366132814860       -1.90944449639620       -5.58432255141792
C           11.03503218554430       -1.83888403638559       -6.11468340508558
C           11.31705717902562       -2.89888156744456       -7.17670534080830
C           12.76784208113210       -2.92274713873125       -7.63572426604995
O           13.04676961689359       -4.04964694768426       -8.47911716715025
C           14.42384722385985       -4.30675801057734       -8.65032451535220
C           14.98739705200877       -3.99779781723183       -9.89826293632917
C           16.33239824718467       -4.09090239568499      -10.13373422088230
C           17.20190183313532       -4.50234766169003       -9.09228911264467
C           18.59234364173964       -4.57279284346295       -9.32040061578071
C           19.42447957601490       -4.98091377469425       -8.29763159500035
C           18.91659779505685       -5.29032923936705       -7.05823762517913
C           17.55446778487229       -5.21377545473405       -6.76473402081166
C           17.03033272120079       -5.48336331423000       -5.44283575007658
C           17.87282296456398       -5.70466306393983       -4.31440461248076
O           19.24863059123091       -5.65631961847022       -4.47520870518088
C           20.04298530680908       -5.87813113072935       -3.31420116462702
C           21.51379951918150       -5.98575696191671       -3.68889235430758
C           21.99641284853900       -4.76324120065009       -4.46610835684599
C           23.34400694168405       -4.98901295933384       -5.15153414543838
C           23.73944173619203       -3.85418727146430       -6.09605913906317
C           25.02625640290655       -4.15157615125605       -6.86529116424291
C           25.39272249548134       -3.06551905288358       -7.87603435574456
C           26.64212015491182       -3.41114898164073       -8.68599792257923
C           26.99932306049190       -2.35056715194853       -9.72678424161925
C           28.23308259539347       -2.71968335195728      -10.55055553752642
C           28.59500024567662       -1.66577637149145      -11.59768077657088
C           29.81691453790274       -2.04769755213449      -12.41785111302437
C           17.28599668908020       -5.96442060062935       -3.06602420512007
C           15.93093128774331       -6.05449981619123       -2.89665909724845
C           15.06926554646885       -5.85759315389413       -4.00192272432315
C           13.67251521309147       -5.98496830451680       -3.84321399865286
C           12.84837919893323       -5.82505096408144       -4.94007757282617
C           13.36979538537703       -5.48357504819560       -6.16559067149320
C           14.73537644261880       -5.26938745853050       -6.35517152063543
C           15.26376412108459       -4.80386867886680       -7.61333285669086
C           16.66858398140751       -4.84209307204770       -7.81963751122592
C           15.61975068816476       -5.53208678135575       -5.26904632053707
C           13.10021742168109       -6.29172731652459       -2.53304289526007
O           11.89271148139277       -6.38967019186497       -2.38589790619510
N           13.98700686750196       -6.45998647616704       -1.45970185775384
C           13.44069947000147       -6.76323865929450       -0.13433392713103
C           12.54231397484389       -5.61848730840304        0.36666997810676
C           11.94345547588475       -5.93579379445087        1.74774893100140
C           11.17620624930653       -7.27137995563837        1.72179254149969
C           12.08200852521488       -8.41931677552792        1.23687100604346
C           12.68141093320403       -8.10186455709949       -0.14404129008156
C           15.37872764219986       -6.35720119285250       -1.57565474044395
O           16.10906712322686       -6.51431515544087       -0.61137905892767
C           19.15264311257246       -4.21297748189315      -10.62237664044841
O           20.35601150317563       -4.26086217242034      -10.82031210960635
N           18.25865182545972       -3.80737826315034      -11.62356956177277
C           18.79133906418068       -3.42386613716963      -12.93352320412369
C           19.71952879958009       -2.20216706447173      -12.81456692510678
C           20.29943826068112       -1.80103888489938      -14.18181683064798
C           21.02717632599394       -2.98793608700778      -14.84144853198271
C           20.09251169829670       -4.20568239331185      -14.97313950387906
C           19.51233102893089       -4.60559942114910      -13.60543342693398
C           16.87224266432340       -3.72687003984973      -11.44416759427216
O           16.13787257083574       -3.35862581506229      -12.34561526218351
H            2.59952960294458        2.07358774561325        2.05140047591274
H            2.64901869413048        0.37167645998976        1.60262022171709
H            2.04066422789912        1.56034852144606        0.46224609494411
H            4.94709006598312        1.41506394497479        1.45387629691161
H            4.34440637940790        2.59485513982812        0.32333988580730
H            3.75775834856742        0.75077334217553       -1.29068092841903
H            4.35211402758582       -0.43058375635633       -0.15958084187213
H            6.64363239332146        0.62206728643686       -0.26425184076493
H            6.05028668469051        1.80103879303809       -1.39920577469539
H            5.46450751776181       -0.04410302898152       -3.01445535917473
H            6.04300509719577       -1.22673870360636       -1.87638741746519
H            8.34408415584551       -0.19145422626384       -1.97306219828246
H            7.76666407913473        0.98149767999783       -3.12276291727318
H            7.17527126502532       -0.87276162194639       -4.72398854679907
H            7.72817307276034       -2.05055290051936       -3.56847041667593
H           10.04334718098183       -1.04443748526939       -3.65615054399425
H            9.49274037546118        0.11449631910752       -4.83340864146914
H            8.89627197723441       -1.75784167466240       -6.40835176351768
H            9.40132743364236       -2.92370972491601       -5.21927868651580
H           11.73862500848855       -1.96044304385882       -5.28206598140521
H           11.23825584922528       -0.84009303544367       -6.51888648342986
H           10.66059505232417       -2.75726786961032       -8.04245886036895
H           11.05143210446717       -3.88525279159777       -6.78144140358644
H           13.44568261706609       -2.96348155254766       -6.77637292458998
H           13.02326459049865       -2.01586988059102       -8.19443550405978
H           14.34375069545615       -3.64934132082808      -10.68486221644300
H           20.48207277972775       -5.03975716809369       -8.49134071560551
H           19.59348031018714       -5.61146755216402       -6.29261648738347
H           19.70027730483973       -6.79859485535400       -2.82836222107712
H           19.87352078257876       -5.04017911178111       -2.62931132211863
H           21.64675285864772       -6.87676305257184       -4.31363380893805
H           22.13862423803908       -6.14827476044013       -2.80230668183674
H           22.04275603418946       -3.88698574354948       -3.80842702005896
H           21.24728694991345       -4.50484602515220       -5.22355301901599
H           23.30650432940275       -5.92752868732911       -5.71801803222088
H           24.12623474334242       -5.14303165315694       -4.39877558694266
H           23.84454604998816       -2.91823644279437       -5.53466138692972
H           22.92492182793614       -3.67103543602020       -6.80747151623282
H           24.92389269720998       -5.11121510508035       -7.38639773097596
H           25.85380213248693       -4.29790521049212       -6.16080012110003
H           25.53669073979832       -2.10949545447571       -7.35878742553693
H           24.54930841426823       -2.89841026349551       -8.55670135330964
H           26.49871938939702       -4.37776849949405       -9.18402067201699
H           27.49068838593849       -3.56407323324112       -8.00827837164483
H           27.15988060836434       -1.38553908169214       -9.23119702863557
H           26.14520704240241       -2.18909493208737      -10.39552140851117
H           28.06989711549592       -3.68579359231659      -11.04345751283448
H           29.08700649918048       -2.88284256072810       -9.88194618897756
H           28.76010172966140       -0.70141621925474      -11.09936911265706
H           27.73350460120534       -1.50007123805400      -12.25793590444895
H           30.69237561537792       -2.18645156461331      -11.78102420448172
H           30.06797674245019       -1.28703160490394      -13.16022374603338
H           29.65618692488198       -2.98586975431710      -12.95201009397174
H           17.89776300873360       -6.10593093647164       -2.19588070817333
H           11.78811811468979       -5.95893407854387       -4.80940266449716
H           12.71364759105754       -5.38329827753521       -7.00999553212474
H           14.30292955895558       -6.85464914238009        0.54482103324990
H           11.74088212954385       -5.47055693300884       -0.36546750552851
H           13.10854013463736       -4.67877439153053        0.37807162443537
H           11.29302355464754       -5.11784047778251        2.08697419533794
H           12.75098634428391       -5.99466475919026        2.48761296722906
H           10.31627356694714       -7.18063061879870        1.04706989019318
H           10.75264653735032       -7.49821786913002        2.70981989857815
H           11.52979031104487       -9.36882467079659        1.21206157434142
H           12.89445736568295       -8.57065576310175        1.95796358240244
H           11.88512098013595       -8.03536745950078       -0.89361130128160
H           13.34551696529331       -8.90369434308191       -0.49027130065848
H           17.92429346382065       -3.14528861836558      -13.55306456792860
H           20.52968250553665       -2.45724978231761      -12.12259539056093
H           19.18111347497083       -1.37004094802672      -12.34388998722866
H           20.97148573870615       -0.93767087476845      -14.08102013338554
H           19.48551664068481       -1.46471900608301      -14.83557737260838
H           21.89563731806545       -3.26360912257232      -14.23093067608073
H           21.43476362792899       -2.70073230866270      -15.82046994871496
H           20.61748593058609       -5.05289010721700      -15.43549879142140
H           19.27085302336850       -3.96093468451037      -15.65722545473020
H           20.31550488480161       -4.93746921392709      -12.93831778364428
H           18.82808181940512       -5.45907901877581      -13.69038987660065
