69
 energy: -12.260057572937 gnorm: 0.000296095289 xtb: 6.6.1 (8d0f1dd)
C            1.07624370433390        0.55077494225234        0.40100052979688
C            2.55932550685465        0.29759183446108        0.18303512974948
C            3.10950351976362       -0.81033840625634        1.08211997541633
C            4.59680897535069       -1.08097291836494        0.85659470300129
C            5.13784718872637       -2.21319463966319        1.72936929411066
C            6.61177022645321       -2.51826845883001        1.46416473290866
C            7.13763421684641       -3.69373134972069        2.28753737882805
C            8.58233864845479       -4.05856695845143        1.94835803678285
C            9.08169076230031       -5.28944288511922        2.70328239913997
C           10.48445358455064       -5.71795773021358        2.27744889345192
C           10.96209397572594       -6.97689898735725        2.99485104929816
C           12.37158271503088       -7.39293572325103        2.59672640478810
O           12.87814289087621       -8.42307563682328        3.45123419378117
C           14.23016625758071       -8.30878096542066        3.83018203477241
C           15.00022986918335       -9.44898463597288        3.72993698900051
C           16.38201174234267       -9.44553045279510        3.98940949316846
C           17.16623099303338      -10.60305339541020        3.85226383413482
C           18.52849396079607      -10.58937625665856        4.08760524077785
N           19.29916869272015      -11.75458162288580        3.93185021366091
C           20.73794666491983      -11.76101710630234        4.19114650979088
C           18.69815541222574      -13.01630170070270        3.50072766404527
C           19.12774947206149       -9.36671247424660        4.48275931292639
C           18.39480777773285       -8.23086952847109        4.62394644770192
C           17.00160298352037       -8.23149844599512        4.37876858087705
C           16.21128567379551       -7.08032185965813        4.52061767548023
C           14.84903158920058       -7.09070844476570        4.29312085776610
C           14.07934805438240       -5.86795373410196        4.52071039387336
C           12.96069442819889       -5.76340412728126        5.27772170197438
C           12.47209373415301       -6.81863424288949        6.05164191957065
N           12.05770742698427       -7.69091001626571        6.70010737800172
C           12.24924710746239       -4.56176829288710        5.26560277590510
N           11.64503426750788       -3.56988880474904        5.19661578273341
H            0.69500986287344        1.34183659900981       -0.24827963664943
H            0.87358214074673        0.84588591076020        1.43194359637343
H            0.48932901952860       -0.34772928606930        0.20254175647825
H            3.12995916742571        1.21987570382896        0.35350813374978
H            2.74719649800627        0.03815343564359       -0.86715052638470
H            2.53955827977848       -1.73268365852084        0.91739049254002
H            2.93642709394858       -0.55307012137200        2.13394821981662
H            5.17220052367291       -0.16562777528150        1.03958803204196
H            4.76905324007055       -1.31898750406458       -0.19997668369683
H            4.54163838707618       -3.11864594137057        1.56357136702021
H            4.99432498706758       -1.96763889363223        2.78840321100375
H            7.21817056729144       -1.62610024939742        1.66102665234007
H            6.75314155170257       -2.72878208862946        0.39716542470344
H            6.49437288172347       -4.56731169494440        2.12687766184138
H            7.05145585000222       -3.46897143544162        3.35733288230458
H            9.24046170865073       -3.20557336783046        2.15296723466924
H            8.66910235645651       -4.23419745189934        0.86933284667455
H            8.38412970408610       -6.12169081392794        2.55098363636222
H            9.06559481172847       -5.09482642055738        3.78263063225247
H           11.18864095934124       -4.89798931073636        2.46369261184489
H           10.51096212310430       -5.88003171838306        1.19343120094915
H           10.27066829207934       -7.80786667941555        2.81524011730663
H           10.92982328370115       -6.81870430026649        4.07807545641418
H           13.05249030677617       -6.53821075970569        2.61369263908358
H           12.39355111579348       -7.77632077982762        1.57050725207110
H           14.52372248684044      -10.35660004795654        3.40994418912440
H           16.68515675810045      -11.51485286313165        3.55271625007148
H           20.93221142088493      -11.46767622065843        5.22103075147533
H           21.24080792186749      -11.06665972470262        3.52071105279790
H           21.16173714004784      -12.75086393554557        4.03526052536071
H           18.23117460467588      -12.89283657740328        2.52536403170143
H           17.94532232638712      -13.33531746285605        4.21907442000717
H           19.44591183598505      -13.80249878155055        3.42099315351386
H           20.18562218493279       -9.34203861521341        4.67340885369684
H           18.86763962348223       -7.31251523725336        4.92644590658097
H           16.67638224339331       -6.16783341277806        4.84738917185569
H           14.42770471771697       -4.97028549408162        4.03337995557195
