65
 energy: -10.931533787922 gnorm: 0.000359226276 xtb: 6.6.1 (8d0f1dd)
C            1.00795501493842        0.52922034232475        0.21627737125023
C            2.44619531054068        0.18199714050699       -0.13341465499016
C            3.02138967836353       -0.92501495552850        0.75135238384347
C            4.46706686680304       -1.27792840579948        0.40211130993397
C            5.04262444437419       -2.38968297031303        1.27933896634495
C            6.48374824736583       -2.74761664019841        0.91647526774051
C            7.05799487065886       -3.87369531703266        1.77588181071004
C            8.48321430145536       -4.25775794558902        1.37853141289555
C            9.04777413361090       -5.40964205725816        2.20928447109591
C           10.44682263964430       -5.83458360887109        1.76571189148594
C           10.99359173701626       -7.01300691502011        2.56665634825664
C           12.37001935234857       -7.46090413665502        2.10388137143021
O           12.85234774410760       -8.56122952362568        2.87901896143445
C           14.24198805194994       -8.55658832677085        3.11818134243766
C           14.95174091862925       -9.66391958825758        2.69272073811581
C           16.34437562737552       -9.76725032098473        2.84607401490747
C           17.06476499543461      -10.88550639263878        2.39009869315722
C           18.43656417842712      -10.97408775388927        2.53529520084053
N           19.14212623716088      -12.09686164532190        2.06837785295965
C           20.59108300092375      -12.21155162546492        2.22835004166391
C           18.45976856110726      -13.20600936612296        1.40269307346973
C           19.11410682816920       -9.90036427234439        3.16741874635454
C           18.44429815974240       -8.80839669658718        3.62070531898273
C           17.04113997689230       -8.70501760114232        3.47297084367046
C           16.31482323945376       -7.59420073033081        3.93116513017091
C           14.94925685152079       -7.49558712890571        3.77929082149954
C           14.27866717824007       -6.33435610733905        4.34495531015244
O           13.10805321971179       -6.06257705774682        4.34664742667157
H            0.60951800519519        1.32043316358389       -0.42275308708769
H            0.92398701226190        0.86884084623053        1.25016348372083
H            0.35491849039490       -0.33872229927990        0.10891957143964
H            3.08040289219050        1.07482515684458       -0.05457575081100
H            2.51591828436041       -0.12270026693748       -1.18602688999002
H            2.39430503593199       -1.82143685050207        0.67339028119725
H            2.95920346314227       -0.62512752750954        1.80445420244697
H            5.09503452775518       -0.38249146111974        0.48351210805269
H            4.52843399975809       -1.57324469761634       -0.65237477971917
H            4.41099412693270       -3.28309671653144        1.20207361945932
H            4.98954245319919       -2.09375385780263        2.33411851847158
H            7.11855000137178       -1.85733723931133        1.00243712478084
H            6.53468533990005       -3.03195749013591       -0.14166351025254
H            6.40826553965804       -4.75472942289164        1.70753473540722
H            7.03344313715683       -3.58304968326729        2.83313418925778
H            9.14006974742910       -3.38362810511923        1.46345591963273
H            8.50567743589001       -4.52825783590541        0.31586202994291
H            8.36921886782234       -6.26946604642548        2.15231178609961
H            9.06470980183040       -5.12950473490097        3.26953162155230
H           11.13509375925110       -4.98449642383646        1.84621874974901
H           10.43226912639310       -6.09173162198690        0.69965803363915
H           10.30141309130851       -7.86087124995720        2.51682775128559
H           11.05699437502797       -6.75022331222697        3.62966143255460
H           13.08947996438776       -6.63881955380117        2.18238993370497
H           12.35526319766112       -7.77412150429620        1.05425736724995
H           14.41272271618627      -10.45984858593244        2.21404445297381
H           16.52523183770358      -11.68433921186909        1.91743634595086
H           20.85493323787016      -12.16491636441369        3.28331426512007
H           21.09017120178704      -11.40183562513786        1.69911831358549
H           20.95847210562498      -13.15493574542094        1.82947956362904
H           17.94114723701655      -12.84701919792391        0.51555989884429
H           17.73754116480642      -13.65984823769006        2.07889229170471
H           19.16499609865172      -13.97493923102286        1.09387833797985
H           20.18109489779577       -9.95641389750759        3.28821756265610
H           18.97637302631230       -8.00442334959219        4.09938321316118
H           16.84630840163524       -6.80170124145773        4.42704881498398
H           14.90745503240898       -5.60579097040804        4.83943703114938
