44
 energy: -9.394238651963 gnorm: 0.000469102883 xtb: 6.6.1 (8d0f1dd)
C            1.00818876133180        0.08295118595864        0.42784444013166
C            0.21968400833330        1.12217026388209        0.11071172103459
C           -1.23424005548839        1.11434633383429        0.15033702003863
C           -1.94606016530298        2.17297244113785       -0.41744558688290
C           -3.32016160365422        2.19266000970319       -0.40416593231089
C           -4.04755415711385        1.15712820649265        0.18271307831669
C           -5.52475225040656        1.17725014436633        0.19785787543214
C           -6.25721259429870        0.66535810376537        1.25977806853810
C           -7.62872442733771        0.70997199035068        1.22252365504884
N           -8.33870796223137        1.21454239996004        0.22710996313234
C           -7.63635631493483        1.70028700059782       -0.78298122151137
C           -6.26518012328712        1.70861472751923       -0.84885466872746
C           -3.33749265407350        0.10294046494581        0.75769424908879
C           -1.96313006153195        0.08090511016776        0.74278039424019
C            2.46155973630995        0.08296160216076        0.37843544683991
C            3.15664756700323       -1.11391230035199        0.56323908672080
C            4.52939558784402       -1.15282331473351        0.51244296393155
C            5.27263549774714        0.00423905879181        0.27910426656058
C            6.74819571019023       -0.03807676091730        0.21790827248684
C            7.53524702596714        1.00825663962457        0.67824116897881
C            8.90246835585317        0.91702914419010        0.59425598603387
N            9.55886655902689       -0.11667996552629        0.09399387143904
C            8.80450763636532       -1.11097952527544       -0.34396676995351
C            7.43228186731695       -1.12575412941198       -0.30683220421231
C            4.57994546790065        1.20236342218401        0.10354423467894
C            3.20668118924590        1.24218884900290        0.15193883497043
H            0.54567418750555       -0.84236989699251        0.71778440334154
H            0.67895294326935        2.03258857971540       -0.22736913859433
H           -1.40182886594547        2.98166616634123       -0.87457374331721
H           -3.84887199198607        3.02412713893209       -0.83692938567795
H           -5.74670170463620        0.25401578402316        2.11319363159218
H           -8.19155070597982        0.31307240077116        2.05393053440119
H           -8.20573265482716        2.11183377903645       -1.60274691940336
H           -5.76163988620061        2.10654121411234       -1.71273421132755
H           -3.88151525371926       -0.71027915636933        1.20598134953088
H           -1.44358516514475       -0.73864602697410        1.20617565386157
H            2.60035289571249       -2.01764125830455        0.74475355495695
H            5.04559909333133       -2.08403846505498        0.66909751286760
H            7.07083469482623        1.87561061034798        1.11441655193975
H            9.50827076366865        1.73347550813424        0.95753864833427
H            9.32969607031314       -1.95883972485867       -0.75751125783765
H            6.88384260708516       -1.96504737012568       -0.69797192537522
H            5.13569297214546        2.10379329683615       -0.08831238099596
H            2.70185739981160        2.18265631802073        0.02205890766757
