91
 energy: -15.419903244433 gnorm: 0.000482398492 xtb: 6.6.1 (8d0f1dd)
C            0.95249479863683        0.01929697565857        0.34566485101928
C            2.42297863341022       -0.36678217151695        0.36170263229480
C            2.95631271293658       -0.72390369113822       -1.02626170902849
C            4.43629706231632       -1.10645903203429       -1.02002506950745
C            4.96947446690271       -1.44972856329996       -2.41075464042720
C            6.45115218952621       -1.82540345518198       -2.40889003498636
C            6.98743986534806       -2.14043195852993       -3.80502038330974
C            8.47031924337625       -2.51060888337361       -3.80868448390408
C            9.01209842157481       -2.78311606517334       -5.21140686140373
C           10.49783376794686       -3.14002596985643       -5.22182978640583
C           11.04638995092730       -3.35705516525357       -6.63011815094612
C           12.53293297925875       -3.68147664178469       -6.64935820068640
O           13.02461586152092       -3.81146855487068       -7.97187168993598
C           14.40044722214266       -3.95227114266875       -8.01576843321646
N           15.10206992432367       -3.94406591652659       -9.14322892185650
C           16.40953122819741       -4.09391371368605       -8.78949286446205
C           17.56436554005012       -4.13191893923257       -9.57455518810526
C           18.79908441202400       -4.28689212870481       -8.96694207710921
N           19.94826077156183       -4.29643051026970       -9.75572101686006
C           20.99520335593611       -4.98023616214182       -9.47022890340090
C           22.19105693658363       -4.95860017860416      -10.25216040630094
C           22.29025136318526       -4.15759636022957      -11.38735635520554
C           23.43826501567665       -4.12521241190914      -12.13704344035477
C           24.54951961650505       -4.90191331425248      -11.77935653721385
O           25.76053322913097       -4.92722625308364      -12.47793937987043
C           25.84072093475864       -4.02314844008508      -13.57372672998411
C           27.21242602159472       -4.05301335608503      -14.23130641295548
C           27.34071175945918       -3.07126401656676      -15.39399504042040
C           28.72443170793946       -3.09437816508804      -16.04183339307010
C           28.86473367862405       -2.09826540517547      -17.19234143755920
C           30.25359605991063       -2.11704061883598      -17.83040093400086
C           30.40262099486476       -1.11310699626633      -18.97417732404461
C           31.78863158309992       -1.13510495663057      -19.59892063052727
C           24.45040417805122       -5.70775694498587      -10.64778812699565
C           23.29899220926602       -5.75497470871509       -9.87143581316107
O           23.21279749225440       -6.55032850858715       -8.74697751051022
C           18.87618705644076       -4.39819604342488       -7.55942006668357
C           17.75642514090018       -4.36317520451617       -6.77057431988353
C           16.51299068792708       -4.20815494777539       -7.38508808218402
N           15.22210392785598       -4.11266573808426       -6.90859607197678
H            0.58322406871266        0.27225360588499        1.34186542745065
H            0.33468291580884       -0.79521842399307       -0.03617295751988
H            0.77829775170924        0.88331736295759       -0.29783453363950
H            2.58433364252461       -1.21398864675245        1.04116882814376
H            3.02364135707924        0.45101414749867        0.78112643452990
H            2.79741750825418        0.11949073851293       -1.70907631019620
H            2.36514938211465       -1.54584205871292       -1.44782336945487
H            4.59543979173477       -1.95518074737229       -0.34395843683806
H            5.02631044315928       -0.28704364675180       -0.59196079332631
H            4.80656145359336       -0.60098501256823       -3.08607051352322
H            4.38155965318605       -2.27060275527028       -2.83903592132604
H            6.61361490532799       -2.68519945796466       -1.74775925347329
H            7.03648381902441       -1.01072504394058       -1.96557611343504
H            6.82266044098932       -1.27906891461400       -4.46382919998469
H            6.40285590465381       -2.95467377375074       -4.25029006186252
H            8.63439279394890       -3.38798269780074       -3.17152485535454
H            9.05083113418913       -1.70624593291886       -3.34089822984390
H            8.84201207894656       -1.90499057834763       -5.84620220205661
H            8.43533772293086       -3.58921048919469       -5.68081798665269
H           10.66820451833726       -4.03765085115317       -4.61532646345483
H           11.06921151010442       -2.34691456204420       -4.72457789946835
H           10.87022265597836       -2.46474598464920       -7.24149596537170
H           10.49454990270732       -4.15947920344060       -7.13247240470467
H           12.73515176997252       -4.61802655386659       -6.11751719359117
H           13.10443530967607       -2.88772378497389       -6.15469631487767
H           17.49486239244186       -4.03841363772335      -10.64144190033808
H           20.97775783026474       -5.62398555952274       -8.60912976876425
H           21.44021634383164       -3.55851263151301      -11.66488149898255
H           23.48151775146505       -3.49847592417647      -13.00870445201264
H           25.61929276394995       -3.01691063087057      -13.20142923243748
H           25.06313978099609       -4.29301651097808      -14.29659367096691
H           27.42640850787356       -5.07200183838909      -14.57297314298762
H           27.97642126835584       -3.84013118075685      -13.47503875934674
H           27.11483537434790       -2.05656107211580      -15.04468096770372
H           26.57543065998753       -3.29015237090325      -16.14833568327891
H           28.94621547541447       -4.10661057034594      -16.40115351787246
H           29.48871150360392       -2.88836799415905      -15.28260465682599
H           28.63833532670759       -1.08710125757452      -16.83311361017736
H           28.10486187775009       -2.30620838558114      -17.95527105096260
H           30.47771340784160       -3.12686294600896      -18.19507778313246
H           31.01270885830194       -1.91668139697247      -17.06450238691979
H           30.17075356874719       -0.10549276165937      -18.60442865812090
H           29.64018793493663       -1.31716552629450      -19.73758688561897
H           32.55798545972419       -0.90034613775156      -18.86097887001202
H           31.88385832473045       -0.41342906432382      -20.41331798175279
H           32.02311757524275       -2.12086561338969      -20.00488908694967
H           25.29968282670914       -6.30350814174149      -10.37334750618438
H           24.05509196019910       -7.04017182957079       -8.62203026009553
H           19.84591661602541       -4.48821230618161       -7.10331717555672
H           17.81750569769077       -4.44172369396406       -5.69988919478165
H           14.95732647647795       -4.18650349395601       -5.92743706339334
