63
 energy: -10.575997153302 gnorm: 0.000273612826 xtb: 6.6.1 (8d0f1dd)
C            0.91831659760272       -0.03001193004782       -0.48586329941511
C            2.42736018666486        0.08827387418811       -0.34197936687718
C            2.93628678076017       -0.43418594947693        1.00219779790935
C            4.45327689817622       -0.32198213475342        1.15187150291166
C            4.96332050684890       -0.86131762847139        2.48794924077410
C            6.48163149267986       -0.76080963945149        2.63104078122612
C            6.99342321460356       -1.30510500061644        3.96428873681517
C            8.51338170492900       -1.21955720248303        4.09919608104724
C            9.02440869773288       -1.74747397902103        5.43918155790992
C           10.54564695144547       -1.67721621913554        5.56731693545896
C           11.05366404166437       -2.18493827982080        6.91571849061256
C           12.57564133119300       -2.12345542389777        7.04490368760866
C           13.06246513310877       -2.60957919668550        8.37783717625531
C           13.40717219228567       -3.94034768337921        8.56657802848407
C           13.81362310261713       -4.39619530923780        9.79972207563174
C           13.88338012926894       -3.53688058340231       10.90164327216518
C           14.30889986418664       -4.02258522725938       12.22128395720635
C           13.94372981704639       -3.36761279363022       13.39552309821639
C           14.34430391420604       -3.84406258788467       14.61810362820840
C           13.94341891550504       -3.13228454921552       15.85565318375093
O           15.11494231182175       -4.95701687076463       14.74511982612358
C           15.48221296180296       -5.59967101958455       13.60452747961704
C           16.33173512095221       -6.80843053575078       13.72942364676016
C           15.09677135177963       -5.16289462629840       12.36254033265701
C           13.52539249105886       -2.19946307907348       10.70077458019323
C           13.12211385290583       -1.74919848950613        9.46466159183155
H            0.56683610921998        0.34310553635688       -1.45070852715859
H            0.40182036092658        0.53508278710441        0.29254666751464
H            0.59350847633678       -1.06867954688275       -0.39789698656326
H            2.73872618096708        1.13418648174097       -0.46604679141408
H            2.92839128806686       -0.45447134974730       -1.15483277210938
H            2.63028348839000       -1.47989260987802        1.13005283415150
H            2.44394029199783        0.10768117874776        1.81917403438071
H            4.75934316290658        0.72504841796601        1.03560344208919
H            4.94472854647381       -0.85493304648169        0.32853913498346
H            4.65096415740225       -1.90621690803538        2.60657953369638
H            4.47831811668937       -0.32417186086150        3.31236032878670
H            6.79475299901764        0.28413548933435        2.51469305452811
H            6.96548206818240       -1.29623855999024        1.80480802856691
H            6.67097878455245       -2.34663657458091        4.08559237792614
H            6.51843440437744       -0.76226520257865        4.79079965364564
H            8.83746460262017       -0.18014495112704        3.96506730659398
H            8.98776831226201       -1.77335359353787        3.27964545524606
H            8.69023403579694       -2.78286574654965        5.57960905975981
H            8.55919650236472       -1.18504312433293        6.25814455661707
H           10.88143566411193       -0.64440347023027        5.41253799929786
H           11.01111960009461       -2.25230260179677        4.75736342748843
H           10.71390374334054       -3.21547252662298        7.07611522948473
H           10.59394707503048       -1.60573492058943        7.72591043330935
H           12.92269612942366       -1.09612488842570        6.88363444647808
H           13.04190529942601       -2.71384698771923        6.24749444596054
H           13.34562430852681       -4.61970829498280        7.73327484267054
H           14.05360617729796       -5.43726179317567        9.92575814349479
H           13.31949359007304       -2.49413298101546       13.35506365079307
H           12.87621580495681       -2.90743591886974       15.85251424652578
H           14.49189604816606       -2.19561039928842       15.95972088672648
H           14.15647426241977       -3.74740064842391       16.72985971061962
H           16.54528168503095       -7.01187288401937       14.77870771187023
H           17.28152243818028       -6.67312430670965       13.21085772865275
H           15.83181322793809       -7.68210334348506       13.30985319526689
H           15.43588062545987       -5.69605324334003       11.49357019312993
H           13.58870604278655       -1.50647905022677       11.52114504793820
H           12.84681682635444       -0.71688649308007        9.32934424602829
