74
 energy: -13.245166311055 gnorm: 0.000501288484 xtb: 6.6.1 (8d0f1dd)
C            0.68437625479908        0.54711311649839       -0.10121265025226
C            2.14186676461291        0.44468409233391        0.31900697102411
C            2.63541503552012       -1.00057483527794        0.40011659789987
C            4.09907241398935       -1.10915358878457        0.82698925292222
C            4.59915431949078       -2.55205669786355        0.89135203361103
C            6.05882850207348       -2.65731706611674        1.33204869224513
C            6.57285654066893       -4.09610123888487        1.36344369712955
C            8.02862787515587       -4.19794916974738        1.81654540897979
C            8.57129253168066       -5.62496645289938        1.76631214068736
C           10.05328479947542       -5.70937719496089        2.12675303971588
C           10.63558184599647       -7.10322493885194        1.94970447374824
N           12.08522946960535       -7.11945790759604        2.17446293801512
C           12.68331616927156       -6.94607408807967        3.38339330172190
C           14.04692015978279       -7.13595256426968        3.23050489568329
C           14.28982668935301       -7.44067416367210        1.90658883242606
C           13.06764232726155       -7.41388827114713        1.21422574435651
C           12.90162262107248       -7.76222586376912       -0.17598044427467
N           12.23498689968380       -7.09649295024600       -1.17141696707032
C           12.46456671171701       -7.62694039330576       -2.43015918558185
C           12.05227848968895       -7.06678917837781       -3.62066759018931
C           11.40392871071641       -5.84174659554516       -3.58459245710883
C           10.93547082401495       -4.97679092095707       -4.61813996644982
C           11.00011335797754       -5.21486823774693       -6.07953446895416
C           10.40353407382038       -3.85864128248364       -3.99995011613121
C           10.52792085769194       -3.99988467291580       -2.60001618485149
C           10.03470462506865       -3.08751086601176       -1.55354312573262
N           11.12462943281647       -5.18045324849065       -2.39536141942067
B           11.31478310573178       -5.86857969397056       -1.03733310796732
F           10.05068694282948       -6.29424333224299       -0.64447584801656
F           11.87747461011843       -4.96027714856874       -0.14853179997607
C           13.33636005135276       -8.76857307182077       -2.22529467363616
C           13.89629126052214       -9.68441056181649       -3.10713799005852
C           14.72676814078054      -10.66503204573448       -2.60367946031054
C           15.00234164775912      -10.73876165239901       -1.24196561535228
C           14.45628631943164       -9.83292901814552       -0.35693511603497
C           13.62046479718500       -8.83391221213242       -0.84825292634768
H            0.34551523809288        1.58388954065640       -0.15906606940585
H            0.03273275937596        0.02794935598448        0.60394652286405
H            0.52331304052425        0.09410385291884       -1.08113228883422
H            2.29018455391696        0.93344530786881        1.29100935743573
H            2.77687945288667        1.00537841167323       -0.37964018638602
H            2.49743653020700       -1.49170503545234       -0.57075067388153
H            2.00547110377267       -1.56650005326181        1.09708269272814
H            4.23455207499372       -0.62845139069653        1.80341319959329
H            4.72740285979235       -0.53311628767870        0.13683865772349
H            4.47481013326823       -3.02870493958378       -0.08855342254096
H            3.96553646125319       -3.13259823713536        1.57276661826766
H            6.17917519326378       -2.20087100385692        2.32194930021719
H            6.68857486741260       -2.05746516088280        0.66372778138622
H            6.46633132264836       -4.54443516198684        0.36809546219508
H            5.93783737107453       -4.70376728520774        2.01931325881790
H            8.13327237835188       -3.79534054056359        2.83113837266444
H            8.65122261781734       -3.55002374461567        1.18845636290804
H            8.42372671576952       -6.03210132867106        0.75862634709530
H            7.98622283751019       -6.27513982955665        2.42766577410516
H           10.21478469663001       -5.36221040816783        3.15373181616448
H           10.62167898862614       -5.01587932924938        1.49672501654410
H           10.44722375055216       -7.47761430315419        0.94014331748604
H           10.16468663849078       -7.81369360436653        2.63495474647525
H           12.16273630440689       -6.71868204209214        4.29883551073754
H           14.78718884488743       -7.06856216408058        4.01189502263561
H           15.25213800564952       -7.64246909824422        1.46593860900741
H           12.29751458645063       -7.53071076408066       -4.55719223082306
H           11.44412522807238       -6.18499012408765       -6.30381254933775
H           11.60189199290810       -4.44908429529229       -6.57043294024990
H           10.00235200231792       -5.19376234589857       -6.51957999629782
H            9.95584268181678       -3.01935884366700       -4.50413042428986
H           10.22897400887626       -2.04725771131948       -1.81638142290676
H           10.53264325070470       -3.29667695724242       -0.60680546592442
H            8.96136396057454       -3.21144005712597       -1.40745246024277
H           13.67952150562843       -9.62028103927437       -4.15875472241470
H           15.16799042180908      -11.38342243614409       -3.27486979929207
H           15.65163824486801      -11.51572559184844       -0.87308034219095
H           14.65737219607607       -9.89350143861573        0.69768434151177
