124
 energy: -20.674902556425 gnorm: 0.000783771443 xtb: 6.6.1 (8d0f1dd)
C            1.02805161342204       -1.77009376365691        0.42863887880410
C            2.06336613781707       -2.24550309764328       -0.57739221555154
C            3.49426800662390       -2.13659299059454       -0.04945065462977
C            4.53092501392745       -2.71869952981828       -1.01035075370012
C            5.95615694211943       -2.68562900848198       -0.45527002914450
C            6.95169436219321       -3.43123771370883       -1.34237349061263
C            8.37802687049433       -3.43825237448436       -0.79141062486654
C            9.29469939395639       -4.37341121771615       -1.57683474150220
C           10.75816108816279       -4.31764790658079       -1.14733864431702
C           11.61241992081952       -5.37427227450827       -1.84522108678333
N           11.55732607396314       -6.66706011007140       -1.18096900185462
C           12.64964164570476       -6.99985452120234       -0.37605943670916
O           13.53971491867906       -6.19803773984672       -0.14440189006053
C           12.70270168051531       -8.35749282859611        0.15262899352124
C           13.81692149951264       -8.76831260686334        0.83361357027072
C           13.94392422637009      -10.06682909851996        1.34543364603433
N           15.10231761563153      -10.43713195248670        2.00010156885984
C           16.32138399361121       -9.64858086723233        2.12257830367821
C           17.49580086838050      -10.45461862029611        2.65674954835735
C           18.77981281065988       -9.64471888851964        2.74624522078995
O           19.87293547591301      -10.43093894734841        3.20631268083712
C           21.09041583439371       -9.69571225613871        3.26129385331383
C           22.25598301658824      -10.56797618941811        3.71463948369416
O           23.47819435889938       -9.86543902673158        3.78567651479057
C           12.88268146767613      -10.97649529376057        1.16899971086365
C           11.71655215498765      -10.55977154433349        0.47969683253839
C           10.63250649110340      -11.45252934399173        0.28437330567217
C            9.50160533610841      -11.02744705247846       -0.35701972481225
C            9.35675271710767       -9.71829647447414       -0.84693185132977
N            8.09207324059501       -9.35211941557702       -1.30860630875275
C            7.45901600632688       -8.06461252365716       -1.03086871925946
C            6.12206475634394       -8.18757887597977       -0.31656547172765
C            5.54959853141416       -6.83674426898332        0.07891153550711
O            4.29238420479905       -6.94357656295461        0.73926037135635
C            3.92128379036542       -5.72898518494223        1.38741295228941
C            2.41611688038924       -5.61823950496993        1.59931119217162
O            2.03580760822465       -4.39435690960635        2.19489887532332
C           10.45871969299707       -8.83338520848070       -0.75959518402573
C           11.61519560147264       -9.24661642340344       -0.04680868875937
C           10.48817957015867       -7.53929077066262       -1.44880456422561
O            9.63346736434493       -7.20214069159332       -2.25232636700571
C           10.70120503387966      -12.81936642710141        0.78970453802109
O            9.78549078885715      -13.60590811617035        0.61286925857548
N           11.86069094620529      -13.18885595056078        1.47475284856890
C           11.94736137336263      -14.55385726367464        1.95668522490108
C           12.09365127819596      -15.53696603068114        0.80920580406357
C           12.15257810856599      -16.99266808385869        1.26421105562144
C           12.25237304023221      -17.97554224100109        0.09899479342562
C           12.28691374878640      -19.43528107482508        0.54911955817445
C           12.35550415103661      -20.41886057990545       -0.61853131824448
C           12.37701503164594      -21.87968978192212       -0.16931804298641
C           12.42235003003309      -22.86386471167546       -1.33784918842054
C           12.44813154547139      -24.32573494868805       -0.88986966434193
C           12.47944272413556      -25.29912382036703       -2.05697867746941
C           12.96657466416175      -12.34740166488965        1.66880074372889
O           13.95557004351336      -12.78274708228848        2.23737941293215
H            0.01172835862716       -1.83859019089173        0.03545351915480
H            1.20216596882464       -0.73156802776515        0.71427522938809
H            1.06704741146741       -2.36804055361204        1.34075341654595
H            1.97609946861807       -1.67880488345173       -1.51309062393098
H            1.86081279368628       -3.28764229780035       -0.85571733524995
H            3.56129424173009       -2.64768939091260        0.91766696599809
H            3.73365839999829       -1.08905798204237        0.16693815926678
H            4.49236086590336       -2.18576465214895       -1.96730700636926
H            4.25868494268369       -3.75189468398589       -1.25456812753420
H            5.96899941171528       -3.12162181192494        0.55038689096004
H            6.27989349309805       -1.64736496431356       -0.31871318257725
H            6.94584336471407       -3.00091638925457       -2.35081324562978
H            6.61368361747987       -4.46432483619622       -1.47825646210077
H            8.36805488965432       -3.73688407447779        0.26356871158827
H            8.78431702325033       -2.42006025229700       -0.79808031804734
H            9.22136575749636       -4.14786123454135       -2.64753012728724
H            8.93031442901519       -5.40183534803288       -1.48419977073636
H           10.83768857530633       -4.46024963077524       -0.06341220580167
H           11.15188413402457       -3.31180777548598       -1.34084784619747
H           12.66706897204707       -5.07499669279173       -1.86844006699254
H           11.29781217017860       -5.50939021533106       -2.88473449934755
H           14.61322874640347       -8.06054240931224        0.96866552498949
H           15.18993108215032      -11.39162986277806        2.34939062738479
H           16.11711483646557       -8.79184018943766        2.77331668787035
H           16.56766797799536       -9.23867217307972        1.13744965896738
H           17.66580224357492      -11.32899797362037        2.01891313972295
H           17.25314207798474      -10.86336436954014        3.64370995259894
H           18.65713774852579       -8.79675414094503        3.42925879407383
H           19.04462997005165       -9.23484420920126        1.76520933286282
H           20.95555644476218       -8.85412068573538        3.94861085120097
H           21.28798526062874       -9.27925474049625        2.26833980331033
H           22.37601510614599      -11.43047545320266        3.04781995953969
H           22.05559695691127      -10.97492079679518        4.71220631883755
H           23.68856433716091       -9.45841854024955        2.91508452145876
H            8.68461391387576      -11.71926691315516       -0.45116829686717
H            7.38606100118121      -10.08337171991719       -1.38382878430328
H            7.35653824142079       -7.52303266574174       -1.97771531358282
H            8.15183099690942       -7.47467328764927       -0.42237347776633
H            6.23570000554993       -8.80792940563434        0.57909762171388
H            5.40247017805226       -8.72023826760816       -0.94738841524268
H            5.40300932255882       -6.20948909603550       -0.80649203826751
H            6.24405708395908       -6.30687009759730        0.74100241652952
H            4.27165069905006       -4.89014802964668        0.78097434868190
H            4.45444169262290       -5.67850674122858        2.34212959268511
H            2.04664548723414       -6.45024824191342        2.21064619611757
H            1.89672626277156       -5.68936732318883        0.63743073693324
H            2.46090739130878       -4.30664947438224        3.07817280388513
H           11.04342097656811      -14.76445248216105        2.53684692761746
H           12.79587612307532      -14.62302504066328        2.64545563187419
H           12.98920782486162      -15.28544490938717        0.22952393319690
H           11.25420843661361      -15.39571793375092        0.11766722462082
H           11.26496750912251      -17.22417587272591        1.86475612267362
H           13.00238775358192      -17.13342830299053        1.94245597355337
H           13.14453600294582      -17.75127316665749       -0.49760585781684
H           11.40755323146271      -17.82158569932757       -0.58284905437477
H           11.40240278470583      -19.65191808806233        1.15988415362369
H           13.14108161927877      -19.59519909456398        1.21774508999069
H           13.24229215238369      -20.20693264285534       -1.22773537381028
H           11.50347728688923      -20.25306632261197       -1.28865285627970
H           11.49702237296010      -22.08643951684036        0.45121523842653
H           13.23657752454099      -22.04967691217252        0.48976538554309
H           13.29930840295170      -22.65453593982851       -1.96183060054386
H           11.55987552684052      -22.69558194798970       -1.99368248829831
H           11.57494064749128      -24.52543728427431       -0.25534699357751
H           13.31589854218429      -24.48953147859220       -0.23785009954216
H           11.60316439160775      -25.17728184058764       -2.69577516693738
H           12.50081619945878      -26.33878601268703       -1.72376944760588
H           13.35857004502162      -25.13680945753300       -2.68267631613271
