135
 energy: -23.686744572805 gnorm: 0.000616558825 xtb: 6.6.1 (8d0f1dd)
C            0.79983022882537        0.27067334390826       -0.26110163932515
C            2.24521314449483        0.59329909660361        0.08282413482765
C            2.87946962344141       -0.44596970329253        1.00819280301864
C            4.33221407477007       -0.12740059386127        1.36076270614009
C            4.96156932318947       -1.16367220206994        2.29149793142450
C            6.40844370406319       -0.83646870406497        2.65887960340055
C            7.03349549687017       -1.86568429831387        3.60008166757564
C            8.46974079967964       -1.52093805198470        3.99050908889746
C            9.09029053874972       -2.53739198522945        4.94627109364600
C           10.50559010447220       -2.16762445337968        5.36313756233471
O           11.05294714248107       -3.10553974427987        6.28245229978699
C           12.30098074126578       -2.75397397429696        6.79979666593926
C           12.84375175563241       -3.57271395150204        7.78765440487427
C           14.07280124064959       -3.30461797131125        8.38630298421898
O           14.52522598713930       -4.19647931297846        9.36006350618527
C           15.79684164753684       -3.87847706295824        9.91315067626182
C           16.24357338503894       -4.90672871187278       10.94118712842274
C           17.60994448606781       -4.58824874864145       11.54372439848130
C           18.06364162078364       -5.61880995149158       12.57648251265804
C           19.42894828489905       -5.29399146810311       13.18138721225848
C           19.88438073718771       -6.32010201923684       14.21840141072800
C           21.24569045471710       -5.98692227529579       14.82830447331043
C           21.70054564850199       -7.00729273907038       15.87144180260414
C           23.05930194664197       -6.66898084084765       16.48637266601209
C           23.50411669021443       -7.68390137622694       17.52729261490619
C           14.76764767291792       -2.16603563517957        7.97319824125287
C           14.26282693783043       -1.33044627826393        6.98091848148388
C           15.01910418957354       -0.13170634773268        6.55432176098949
C           14.58445178961194        1.17150445493203        6.86929264099403
C           13.43638416791817        1.64307534827994        7.59810122273971
C           12.38349138895613        0.82624131206289        8.24776437134160
C           13.46441043572987        3.01407790388044        7.56731837748056
C           14.63292539398681        3.44551159669478        6.87107921064156
C           15.08103057453847        4.75720338107188        6.53680203052919
C           14.66687999553361        5.93558601348715        7.07917479244563
C           13.90684011913319        6.11430379164053        8.29815328237384
C           13.07276238508466        7.23327272723571        8.45235641865106
C           12.35870189807024        7.42660742669525        9.60131777075611
C           12.44503590227296        6.52484988532612       10.67748014020246
O           11.67729723595104        6.78699392347559       11.79662579887219
C           11.80054635867858        5.84038243464769       12.83157434724629
C           13.31029655968213        5.42441710224268       10.53720460026878
C           14.02237739407155        5.23327134069351        9.38604796004977
N           15.25081635796848        2.30806475930363        6.47442643430165
B           16.57618642657010        2.30714283403541        5.71442550914648
F           16.43214116376982        3.01630643159246        4.52423469446206
F           17.56832636890255        2.86563012983780        6.51737206713516
N           16.94059375354892        0.85694397036710        5.40346887318391
C           18.03992681998070        0.51605487973465        4.69326312018557
C           18.97635466376436        1.44837148572987        4.17790284155877
C           20.08415199757109        1.11983502765408        3.47447258695770
C           21.04408072585078        2.05635555957627        2.96118614965777
C           22.15691446959694        1.59013294619372        2.24353678202460
C           23.09047692749066        2.45633939954915        1.74813368048082
C           22.97307395609852        3.84482964118667        1.93801084833676
O           23.96284425953028        4.64955606332464        1.40557583515700
C           23.79167945227472        6.02749988633286        1.63888616976515
C           21.85677996466906        4.31123163210070        2.65590673025217
C           20.92285591810885        3.44300983670290        3.15046844349591
C           18.01618485493199       -0.90695657794047        4.60950099364872
C           16.90503594572969       -1.37385706677266        5.26721441626920
C           16.52110265012284       -2.79998908511016        5.39892624916450
C           16.20587377529698       -0.23383292364104        5.80175435781270
C           13.03628803060066       -1.63682217533890        6.39832312531245
H            0.35844174517091        1.01853676210525       -0.92358955855985
H            0.18156484277591        0.22253779659866        0.63716065431144
H            0.71926243153293       -0.69734592312225       -0.75897550156577
H            2.30987111796875        1.58387648135886        0.55203408157790
H            2.84308402546541        0.67459759036432       -0.83448869951271
H            2.82240160702036       -1.43740890621403        0.54268504337225
H            2.28762899367136       -0.52916579441847        1.92783540436622
H            4.38926193315922        0.86533847451265        1.82345397707503
H            4.92614489491162       -0.04789552133878        0.44221216664429
H            4.91440236047200       -2.15535561395306        1.82548203866439
H            4.36102415958388       -1.24956335336297        3.20520582544378
H            6.45439437260163        0.15781030378284        3.11935357448001
H            7.01210004466412       -0.75593840843713        1.74688429154130
H            7.00505412776923       -2.85822912555325        3.13441978758154
H            6.41933544389818       -1.95741870433823        4.50411858251186
H            8.49609103518774       -0.52454823196045        4.44800847509450
H            9.08827329794761       -1.43675208881216        3.08891061315928
H            9.09502943843246       -3.53330324932294        4.48925651513236
H            8.46800434256235       -2.63751064009066        5.84274637524183
H           10.51182540872898       -1.18085474265228        5.83872974836212
H           11.16468671477202       -2.12263957084895        4.48920301582863
H           12.29324172579050       -4.43841220269672        8.10188546563598
H           15.73010050331721       -2.88534855651877       10.37084231116963
H           16.52103620034557       -3.82199415342123        9.09311446316892
H           16.25962619875326       -5.89830660950827       10.47499112001956
H           15.48926696398427       -4.97576344478936       11.73305015553128
H           17.58600882800978       -3.59264333838693       12.00289591731454
H           18.35662484655872       -4.51495483437022       10.74386780415533
H           18.09108859965094       -6.61414417128554       12.11672780262643
H           17.31536205316835       -5.69411977426837       13.37474281661285
H           19.40074902196844       -4.29734236742580       13.63809431620593
H           20.17724127793605       -5.22004149760616       12.38310352642646
H           19.91875802888614       -7.31639457963917       13.76119652208382
H           19.13351091796232       -6.39757696546415       15.01401798580546
H           21.21109680478002       -4.98860771045521       15.28105532887895
H           21.99729143823317       -5.91277638595589       14.03307900416116
H           21.73926562699614       -8.00533064624932       15.41835015927066
H           20.94669624298868       -7.08398707816676       16.66434781565851
H           23.01585289153470       -5.66607339808495       16.93118776937666
H           23.80935647807525       -6.59256647824558       15.68817351914004
H           22.78729289030039       -7.74769495359235       18.34791522953249
H           24.47517078348870       -7.43099514820215       17.95861306014076
H           23.58730187000364       -8.68253293866105       17.09472452479539
H           15.71020925517974       -1.91194493941092        8.41861074276949
H           12.81079655402860       -0.05512206534581        8.72672656294411
H           11.64345578089085        0.49399734613257        7.51948591240510
H           11.86324828595977        1.39995707392471        9.01566550686904
H           12.71068642094862        3.65817222756645        7.98513417517882
H           15.79367609409881        4.78938809099440        5.72815399943800
H           14.95591222650360        6.84366254670161        6.57245449234130
H           12.98890348486138        7.93354267045699        7.63902250826294
H           11.70936458348342        8.27746481987291        9.70669530890757
H           11.14203244148573        6.13352361252393       13.64985638692123
H           12.82839810883510        5.81956646175886       13.19567500489937
H           11.50024251984636        4.85493173697970       12.47342973001436
H           13.42008164632164        4.72712256471425       11.34742596389888
H           14.70575323638942        4.40520904845572        9.30932421895811
H           18.75957803698794        2.48023485548627        4.38246297709688
H           20.26986582383384        0.07792288744434        3.28439968775952
H           22.26875492751105        0.53101487660332        2.08618972509289
H           23.94083839543623        2.09275343579837        1.19908184587068
H           24.62631287033734        6.56189087711419        1.18385251083591
H           23.78830272819106        6.22575960913926        2.71142541857021
H           22.86224761655969        6.36952068905546        1.18194122467177
H           21.73423605299756        5.36632496231853        2.81914206536724
H           20.08064853580803        3.83137911397949        3.69439144878686
H           18.74434521222894       -1.51845274223911        4.10588710741340
H           17.03089661196123       -3.41271995232302        4.65464049017058
H           15.44794411849617       -2.93086096457056        5.25680662961974
H           16.78294437029257       -3.18444372759908        6.38501088910123
H           12.66678384021781       -0.99153475282554        5.62470337216225
