99
 energy: -17.527024055807 gnorm: 0.000513907594 xtb: 6.6.1 (8d0f1dd)
C            0.81325598273290        0.33798564207991        0.15642727579805
C            2.25031489014656       -0.12116609319614        0.34381893120042
C            2.82848965398178       -0.78315692981697       -0.90750425842069
C            4.27516168067984       -1.24356169704613       -0.72932998747175
C            4.85458330657533       -1.88874367919808       -1.98781043572012
C            6.30684330226810       -2.33477927247219       -1.81985957569653
C            6.89327392190078       -2.94132759088394       -3.09393320144964
C            8.35628313482102       -3.35600161445406       -2.94437606855374
C            8.95187583445642       -3.90305421251049       -4.23942313210286
C           10.42249741343031       -4.26501516346594       -4.11264375829694
O           10.97276207242323       -4.70349466931469       -5.34343605762133
C           12.37424036664260       -4.67979681448096       -5.40702697306479
C           12.94105498794452       -4.63590852152355       -6.66123571781969
C           14.32827790045285       -4.57870076884884       -6.84997957421518
C           14.91713363296725       -4.50037103883158       -8.13022841745410
C           16.26122647718523       -4.42410206345856       -8.27642668591377
C           16.83786545738410       -4.32410439948971       -9.54429927316324
C           17.34055686718174       -4.21487754864098      -10.65425658100013
C           17.89553788676698       -4.06863192922036      -11.93507699731441
C           18.28108708421369       -2.81594006563614      -12.40381407545678
C           18.80676235509703       -2.66618749251250      -13.66421876945362
C           18.97066545502022       -3.76343001608684      -14.51391180528428
C           19.51643839298680       -3.54641981905962      -15.83971342518563
C           19.73648065605209       -4.45417765299650      -16.81564466520913
C           19.46303971438545       -5.81179030181957      -16.68956768905083
N           19.23497518423779       -6.94740975494291      -16.59178207493187
C           20.29671331179950       -3.97192224334845      -18.09932186663528
O           20.52102448004510       -2.77967883884635      -18.21800873399249
O           20.52947528608868       -4.89163009446816      -19.08067211346209
C           18.58855582992135       -5.01871573204809      -14.03229106392308
C           18.06346744407850       -5.16750412868456      -12.77245859628288
C           17.12209650015600       -4.42982689176784       -7.09219276814173
O           18.33476018573539       -4.35582683624815       -7.24799638815096
O           16.54972733480044       -4.51440888854982       -5.84032290861894
C           15.17179530005389       -4.58095083488629       -5.72535865918408
C           14.60241205897442       -4.64880236603863       -4.45548144973433
C           13.23318232747205       -4.70072260508534       -4.25600171035331
O           12.64513608582615       -4.77921066099321       -3.00049468836517
C           13.55312100610591       -4.82208607140660       -1.90468025219904
C           12.82668409859872       -4.92223863143489       -0.57231908200156
C           13.77789859741875       -4.96661220215058        0.62119046916215
C           13.05248515902487       -5.07410228520495        1.96160894869298
C           14.00723080352618       -5.11990860749298        3.15410051396365
C           13.28534372228517       -5.24228220975991        4.49565777118909
C           14.24267613379710       -5.29872566524877        5.68592370310473
C           13.52297704681611       -5.43922317671780        7.02705494972566
C           14.48094051355259       -5.50716817877474        8.21716301343156
C           13.75952175040619       -5.65843888139897        9.54671322609715
H            0.41255121970779        0.81002381509743        1.05582395956166
H            0.16047262718480       -0.50010290029945       -0.09285195405699
H            0.73302790677563        1.06091406031931       -0.65698447966388
H            2.31672229218528       -0.82031374854891        1.18739221933610
H            2.88375781854029        0.72868587416113        0.62923949714722
H            2.76596906944618       -0.08751218345240       -1.75279882568472
H            2.20315034296660       -1.63674639508246       -1.19496830571516
H            4.33830038545886       -1.94747788215173        0.10892190309153
H            4.89817880773516       -0.39114663392804       -0.43346062812501
H            4.78206969732298       -1.18554075997038       -2.82602376683168
H            4.23706467689497       -2.74591465360563       -2.28134393462724
H            6.38036954008027       -3.05683048406596       -0.99794545326912
H            6.91855838313769       -1.48081625226412       -1.50513481689204
H            6.80003735595954       -2.22227481607063       -3.91652579171762
H            6.29377543697510       -3.80590361342962       -3.40262863818281
H            8.45254444014071       -4.10262219739801       -2.14719169146655
H            8.94759623839483       -2.49738915503170       -2.60442826502982
H            8.83653125222181       -3.16703362323847       -5.04282963376399
H            8.38963725884512       -4.78151912906205       -4.57463031694245
H           10.57433393833962       -5.06788605739410       -3.38203909981617
H           11.00796366085274       -3.40227460415155       -3.77414605607923
H           12.28939681231397       -4.62811506808399       -7.51494721429252
H           14.28710228130190       -4.49241859830599       -9.00153796884480
H           18.15930861482304       -1.96112743594128      -11.76035817996451
H           19.09687184781119       -1.68898924456937      -14.01110089670967
H           19.77574566934858       -2.53005092428671      -16.08453435757366
H           20.28330457766801       -5.79431385610003      -18.78976457519786
H           18.70239964476702       -5.88717921472341      -14.65414657680697
H           17.77356227483558       -6.14133760131287      -12.41589627689136
H           15.27755511881298       -4.65634463788370       -3.62264488327512
H           14.16807643279160       -3.91599647525405       -1.93610497679273
H           14.21330060177681       -5.68524207989643       -2.04446970453485
H           12.18764743126121       -5.81220627414912       -0.57726993366371
H           12.13782344308865       -4.07604122920892       -0.47292527306805
H           14.41446123834971       -4.07399734410081        0.61739225104403
H           14.46927540873970       -5.81002379581335        0.50841605207204
H           12.41644700370053       -5.96725234620197        1.96478928831787
H           12.36073136073899       -4.23098666021958        2.07522009465289
H           14.63804313111761       -4.22308577363855        3.15556413934964
H           14.70414513900879       -5.95789232397216        3.03429101545456
H           12.65121170238777       -6.13674299090815        4.49132313934211
H           12.59199029977871       -4.40197414042785        4.61953334036343
H           14.87056347356477       -4.39992040862184        5.69676060331934
H           14.94208592041849       -6.13298706199296        5.55527233429434
H           12.89100416341039       -6.33515118719024        7.01273783746775
H           12.82736353916432       -4.60236130044617        7.16138629567268
H           15.10932711664561       -4.60721660016682        8.22844453515953
H           15.18108983129401       -6.33988047884161        8.07112738866969
H           13.08408886935170       -4.82057314951408        9.72682391645616
H           14.45458732617080       -5.70651726735283       10.38747535335835
H           13.15662878819912       -6.56775369363164        9.56712799012495
