48
 energy: -10.730092127871 gnorm: 0.000649125904 xtb: 6.6.1 (8d0f1dd)
C            1.32016771275463       -0.33585378693026       -0.02405812916344
C            0.30840787181996       -0.81783038966681        0.71620448639863
C           -1.09417093120507       -0.79655072849393        0.33889374726016
C           -2.06721715614844       -1.11863433565340        1.28919250375633
C           -3.40282134709859       -1.10206694522708        0.97108076888731
C           -3.82354640919198       -0.76891238872975       -0.31483681882254
C           -5.23356741049777       -0.73932272995703       -0.67427257661292
N           -5.67596228802738       -0.50031124199455       -1.90755979773556
C           -7.02265388555882       -0.54697456498316       -1.83658335709217
C           -8.00380963624385       -0.36747710724060       -2.87682400736956
C           -7.63644639030614       -0.11091455806288       -4.18879061895476
C           -8.62425096974578        0.04284040919623       -5.11677424677394
C           -9.94088130989719       -0.06180982373018       -4.71258281740391
N          -10.33453809864723       -0.30286611804385       -3.48088433243955
C           -9.37492124555632       -0.45894825123336       -2.55370822495368
C           -9.78874454789644       -0.73357620244845       -1.17932083039297
N          -11.10514550534765       -0.80610947980935       -0.92088997768069
C          -11.45640407210884       -1.05422732680087        0.32180767291666
C          -10.57673005330590       -1.24580965399802        1.36937229240743
C           -9.23648584857160       -1.17665600378602        1.12640130087852
C           -8.81731866207942       -0.91477906190213       -0.17052658847754
C           -7.42776972198701       -0.81810373163325       -0.52273005589884
N           -6.28333631868615       -0.94099909016346        0.21108942828874
C           -2.85731844514741       -0.45775177700667       -1.26867377514187
C           -1.52119229743003       -0.46940557898654       -0.95129259659462
C            2.72035674810631       -0.35724133265868        0.36147414957638
C            3.19951178720071       -1.04420102597060        1.47029977587496
C            4.53996844546966       -1.00799989977153        1.76173166307731
N            5.44828351050165       -0.35428272738752        1.05627588737858
C            4.98838100700050        0.29590608914922        0.00010999536242
C            3.67186084235235        0.32719525349217       -0.38462890751474
H            1.09436295766247        0.12964788597488       -0.96574393246609
H            0.53260366177525       -1.23463323751282        1.68090608606021
H           -1.75644344000487       -1.37632958805824        2.28710108231492
H           -4.13634320971108       -1.35033554004452        1.71683170868400
H           -6.59479354890992       -0.03999844572312       -4.44986371365068
H           -8.38184406956647        0.24175602947932       -6.14769573370436
H          -10.72469839005367        0.05952764016643       -5.44434168081926
H          -12.51734936703634       -1.10617413625115        0.51225033895220
H          -10.94394854609891       -1.44578091838199        2.36250525311781
H           -8.51448786294495       -1.31820460472894        1.91128350332466
H           -6.22572463454030       -1.13973778652283        1.21060609586234
H           -3.18115693882431       -0.20643934870102       -2.26372980110794
H           -0.79582037840735       -0.23794876066136       -1.71037839749013
H            2.52858807313359       -1.61161284906998        2.09005770917351
H            4.90668146219325       -1.54591160384221        2.62304553977725
H            5.72150792479044        0.83334767117466       -0.58238885487722
H            3.36901093205879        0.88055170315844       -1.25677121619640
