90
 energy: -14.936903824619 gnorm: 0.000416645992 xtb: 6.6.1 (8d0f1dd)
C            0.43997653949597        0.43531802826274        0.12923446361549
C            1.93790361216170        0.23482608928302       -0.03867072687796
C            2.61407155921261        1.40284256219451       -0.75788949791286
C            4.12036444284086        1.20865540241400       -0.93119194834078
C            4.79222973344632        2.37397838516040       -1.65696922038195
C            6.29710827932386        2.17784663502928       -1.83901966044119
C            6.96209044797435        3.33406654392232       -2.58502607702815
C            8.46192537994037        3.12878563508669       -2.79360167731099
C            9.11218123396313        4.26874365251500       -3.57456579092514
C           10.60397467739631        4.05181713765175       -3.82589287163980
C           11.22046914273065        5.15664256619449       -4.63303071354837
C           11.59775985882029        4.95985801638103       -5.98795839570835
C           12.03239862885709        6.08601142809527       -6.63292685748879
C           12.44359944152464        6.16402724391666       -8.01033843876443
C           12.43729366363213        5.13111521355234       -8.90807332336880
C           12.86064424020532        5.47774712604759      -10.21739324017792
C           12.89494887595755        4.45640517411146      -11.31527375854911
C           11.50232597823656        4.13283520371279      -11.85671669286614
C           11.51534888925652        3.08584568798118      -12.96878961734972
C           10.11275675621746        2.72424582513466      -13.45627597252970
C           10.11144101419259        1.63986555022927      -14.53302760327151
C            8.70282431768517        1.24203244331209      -14.97428472996637
C            8.69529160412483        0.13846336784180      -16.03180911959682
C            7.28462933634440       -0.27630163269987      -16.45032997797826
C            7.27296568008429       -1.39273294183816      -17.49543826718136
C            5.86630540436756       -1.80317042104008      -17.90167654182659
C           13.19504059227087        6.81022683911935      -10.34224577125712
C           13.63530900875474        7.51548776328010      -11.53091084731970
C           13.29628866095338        7.24848885295809      -12.82983936228686
C           13.89351651892438        8.12779410329066      -13.77315873828344
C           14.68364715784652        9.06749327268309      -13.20773173434714
S           14.70964604744639        8.89694879333725      -11.48841801313023
S           13.01785359019911        7.60651364839210       -8.79811263742090
S           11.99302528466620        7.43157369513097       -5.52969622724656
C           11.36314794378142        6.46487422005778       -4.21903753804534
C           11.04175232476077        7.03760691649217       -2.92466889426654
C           11.12046482827923        6.43203399119705       -1.69969534797463
C           10.72678766191492        7.26657224094590       -0.61881767885742
C           10.35168655319693        8.50648183468279       -1.00472889481053
S           10.47887979221498        8.68242321418134       -2.71887559095281
H           -0.03212129792452       -0.40480859657727        0.64389876674519
H           -0.05438848316713        0.54730677386287       -0.83773086696292
H            0.22439364934663        1.33659735611277        0.70639831985977
H            2.13564913642942       -0.69403050764864       -0.59030596424122
H            2.41228148682167        0.08874630571596        0.94101489171230
H            2.42333898491742        2.33347308429938       -0.20937443343391
H            2.14669938595596        1.55079625057972       -1.73925146790979
H            4.31103086549132        0.27616131325524       -1.47662138022398
H            4.58960380653402        1.06537857181067        0.04991923112065
H            4.60520109962242        3.30662224777302       -1.11063629041232
H            4.31926634839366        2.51852335510052       -2.63616832932635
H            6.48301556533600        1.23906242889425       -2.37526069273307
H            6.77452751655706        2.04593056724839       -0.86027081803801
H            6.78943149659700        4.27236378254989       -2.04363376200570
H            6.47260934101174        3.47271994291692       -3.55695007820419
H            8.63375651189201        2.18026453079395       -3.31712668511762
H            8.95973954450067        3.01334007717197       -1.82299436729597
H            8.96004485193625        5.21589573071178       -3.04330133038310
H            8.59841216169928        4.39858543946756       -4.53501717692664
H           10.75035336794010        3.10082710521452       -4.35127146289626
H           11.14069914015088        3.93285954415873       -2.88024462703581
H           11.52267835724625        3.99926478137295       -6.47141515776926
H           12.12487433339121        4.13158215382152       -8.65218536897959
H           13.36262271713784        3.54141550252939      -10.93321359449677
H           13.55468094541754        4.79318678105062      -12.12136557859703
H           11.01977386838820        5.05034608275099      -12.21388937917283
H           10.86581253817378        3.78527723347578      -11.03365316928831
H           12.02530327334929        2.18154390731583      -12.61460356077323
H           12.12124994314284        3.44421661198428      -13.80997162988451
H            9.60927998081520        3.62249611820817      -13.83434712943718
H            9.50402459034806        2.39473560024184      -12.60521204100450
H           10.64334303044334        0.75468916394947      -14.16288686791036
H           10.69099606265754        1.97828180008126      -15.40071162951235
H            8.17192813212296        2.12315816501418      -15.35542175274835
H            8.12336739313545        0.91690257003523      -14.10123070500980
H            9.23889547766523       -0.73640558281462      -15.65408021866281
H            9.26113550868370        0.46663847951004      -16.91248395019768
H            6.74283374108427        0.59605416781260      -16.83624133592203
H            6.71760266078393       -0.59449755289034      -15.56668568844697
H            7.82199156010939       -2.26026352881178      -17.10534380994965
H            7.84273006364879       -1.07031679710968      -18.37723549383951
H            5.29529449624050       -2.15968601850536      -17.04219240127894
H            5.87028773095998       -2.60180301721334      -18.64714912049461
H            5.31599422764186       -0.96115831576162      -18.32588233683905
H           12.60705887190940        6.47031135651839      -13.11554686182915
H           13.72662417977630        8.05144989814521      -14.83808944528978
H           15.22571685536272        9.82689262684623      -13.73922233142060
H           11.48597205397609        5.42870655783579       -1.55473424412292
H           10.73235834503408        6.93942437560843        0.41109699303915
H           10.02028987809179        9.29018226734359       -0.34976013279731
