141
 energy: -24.858449157486 gnorm: 0.000545333004 xtb: 6.6.1 (8d0f1dd)
C            3.46856265390321        2.44239849306206        3.97730834139725
C            4.74279614594199        1.85223987573997        3.39461646280499
C            4.92240781391061        0.37443863529635        3.74333517339591
C            6.21189669313588       -0.22071184594592        3.17919276174969
C            6.41742991574643       -1.68115505881876        3.57798248324695
C            7.74248509395309       -2.25167213029168        3.07774408586408
C            7.96250568993644       -3.70422988711635        3.49653376094931
C            9.30917670695712       -4.25103995198940        3.02967742176192
C            9.60597998701985       -5.65887614397622        3.55070452980426
C           11.05007299207223       -6.09211644769776        3.27690234300187
N           11.60730738109294       -6.91950761164306        4.35693085689490
C           12.45670767121685       -6.48579781906592        5.38386964901713
C           12.78358771347749       -5.07584898182473        5.63556458628357
C           14.10151928401204       -4.67011481418736        5.80283683702484
C           14.42211213028888       -3.32874921839607        5.97853666799477
C           15.82733811108937       -2.92396660898626        6.07828939257613
N           16.79112122256263       -3.49395535700083        5.37382993796639
C           17.94691374600806       -2.86812490288310        5.72485210690591
C           19.26617649024445       -3.09499429209029        5.30077738490713
C           20.27423616638695       -2.34889519720538        5.85120724123698
C           20.00934361279645       -1.37384038839929        6.82667412508659
C           18.73173505282546       -1.13361402041629        7.25787288063143
C           17.68725600794331       -1.88078390045029        6.69955605037793
N           16.32093145908737       -1.91467066071825        6.92013205898213
C           15.66400020295027       -1.32902867668110        8.09878492660055
C           15.99667013919976       -2.10841684396906        9.36066633363536
C           15.41712447859063       -1.48356744564942       10.62790841436470
C           15.81379464882316       -2.24224864714661       11.89393271087418
C           15.29590577097309       -1.58825254825635       13.17427563637726
C           15.73665450373110       -2.32606547960325       14.43835504899880
C           15.24566057305553       -1.65966732155269       15.72320887648095
C           15.70910216637282       -2.38564679626638       16.98619414504526
C           15.22035690900587       -1.72032511270469       18.27353847780019
C           15.69262555063555       -2.44300692600874       19.52527054553314
C           13.39795767178995       -2.38694272112688        5.98181959254888
C           12.06838423192747       -2.76976173409466        5.85527775217161
C           11.00611356516645       -1.75856859853103        5.84079381429945
N           11.15564620431595       -0.56956218456913        5.28062840543527
C            9.98411944717375        0.09674751433706        5.46939077300531
C            9.61097221043018        1.39913644740750        5.09985259586869
C            8.37224668392424        1.85941982143991        5.45983814379372
C            7.47896871324252        1.05429833109886        6.18492990529156
C            7.81381189050167       -0.22317546734357        6.54753775778492
C            9.07534192078434       -0.71143441457224        6.18530616184043
N            9.73180270346339       -1.90765315607965        6.41248917269656
C            9.25906300455023       -2.94096434324202        7.34700990767647
C            9.27128160800574       -2.45962498567567        8.78893524123601
C            8.66983822791377       -3.47939483961138        9.75394803945783
C            8.60552601886623       -2.97927792100480       11.19635170194033
C            7.93351930922327       -3.97823059660908       12.13792086275867
C            7.81702709878760       -3.46864269093065       13.57400500585037
C            7.10394998661616       -4.45654366016561       14.49730114825236
C            6.95431097917513       -3.94083124287322       15.92832449433521
C            6.22688533709670       -4.92598205744514       16.84469650774097
C            6.06435200173648       -4.40214723712058       18.26279606902695
C           11.78033335215853       -4.11583607066538        5.67575045104529
N           12.94402410429494       -7.50012485062133        6.07848441954696
C           12.40917728663962       -8.62863523397681        5.53372381205621
C           12.58715811252350       -9.97714383916343        5.88303170891833
C           11.93684268316668      -10.93932081489409        5.15662879857496
C           11.10442275597762      -10.60027404941343        4.07717173827140
C           10.91414989371735       -9.29335278513635        3.71412921459922
C           11.56903345101386       -8.29738601298942        4.44739798717228
H            3.35041503332667        3.49817358581502        3.72256758558077
H            3.45972576895437        2.36467510216289        5.06629455305187
H            2.58555677415824        1.91549897897671        3.61041354258954
H            5.61627059546392        2.41662002743109        3.74761624936883
H            4.75137503112455        1.97110505307178        2.30290896781045
H            4.06078815709576       -0.19949942992231        3.38074943396143
H            4.90665335425080        0.25014984045978        4.83301564865548
H            7.06932557748616        0.37390271064136        3.51620500314697
H            6.21689485743539       -0.12947797672433        2.08615887867497
H            5.58506877683024       -2.28932580516857        3.20321358904165
H            6.36883140613008       -1.77437232739234        4.66975171987678
H            8.56998459994042       -1.63474655702858        3.45001294208741
H            7.79417151197401       -2.16848583217531        1.98531847970033
H            7.14982559890510       -4.33376702501421        3.11439158989923
H            7.89518976871842       -3.78095913110535        4.58854659416294
H           10.10113475652779       -3.56683229490932        3.35879779974798
H            9.36347022837476       -4.23821752237297        1.93439675309396
H            8.89644564109852       -6.38288750749285        3.13105889933003
H            9.42163679458785       -5.69533781452765        4.63080819662903
H           11.69785557057531       -5.21583163707561        3.17540739773581
H           11.13614438645278       -6.63280287366696        2.32944484777742
H           14.88850373814348       -5.40105280843781        5.76527367314827
H           19.46065925515630       -3.85005401720712        4.56016402744827
H           21.29079751104448       -2.51419473596930        5.53390734497484
H           20.82627988522122       -0.80654358308040        7.24162200393239
H           18.51981317662468       -0.38878889262380        8.00425615074928
H           14.58369186051599       -1.30046643507004        7.94271648844570
H           15.98768426895248       -0.28828895804271        8.18930254562028
H           17.08597029264893       -2.19143888061887        9.45599492714703
H           15.64389753283000       -3.14149329915743        9.25487941825051
H           14.32431883494239       -1.43070620722762       10.55075546449224
H           15.74888005525964       -0.44098393467290       10.70622667023402
H           16.90663793433103       -2.32464041665143       11.94272930681278
H           15.45369749715143       -3.27660698098481       11.83370607605873
H           14.20117201363072       -1.52677519101976       13.14259961827735
H           15.63855097055896       -0.54708858013800       13.21915425538531
H           16.83112366778512       -2.39855566216940       14.45810066259616
H           15.38393830997916       -3.36413837745781       14.40202811717724
H           14.15047691518448       -1.59910043039959       15.71225270580901
H           15.58805669736914       -0.61787649490844       15.75138917475114
H           16.80449755856358       -2.44469542808034       16.99570999756794
H           15.36895455198068       -3.42816761176207       16.95789034696813
H           14.12358732999521       -1.66523477953715       18.25927059458560
H           15.55610430974846       -0.67479223417450       18.29133117208320
H           15.34220147282866       -3.47687349711190       19.54039670239029
H           15.33406471103454       -1.96135581250344       20.43796421941401
H           16.78278385005498       -2.47274029496838       19.57663477977232
H           13.63429571706590       -1.34052954432307        6.03993318585187
H           10.30430121897007        2.01165718210653        4.55173506755308
H            8.07670399352656        2.85878475760461        5.18545950133713
H            6.51471455884185        1.45012137927867        6.45855937286574
H            7.13243021143003       -0.84891768199928        7.09610935168271
H            9.87309047040227       -3.83785051218418        7.25033161052754
H            8.24740347768996       -3.22979862951566        7.04794492128108
H            8.72270479550637       -1.51342382288478        8.86266855276382
H           10.29804411242083       -2.21503441120082        9.08670291700813
H            9.24173712811861       -4.41427643414231        9.70921242462527
H            7.66094776710350       -3.74726902780102        9.41651696623463
H            8.06614796145896       -2.02463376079160       11.22953808878262
H            9.61581181356035       -2.74879059008305       11.55591147341868
H            8.48423782218841       -4.92682631416309       12.12495592769009
H            6.93493814207131       -4.22476598448064       11.75625005220437
H            7.28497676560614       -2.50932260433492       13.58153145633855
H            8.81504101885001       -3.24406128271740       13.96997338067626
H            7.64365265356852       -5.41150265371067       14.50312422873889
H            6.11407037396025       -4.69239737852537       14.08745660064180
H            6.41978942438734       -2.98289514330710       15.92018631860458
H            7.94330228493107       -3.71100485966883       16.34351640554530
H            6.76904862784363       -5.88103619411471       16.85356310561368
H            5.24433392621341       -5.16256256491733       16.41473370300194
H            7.03333261799931       -4.19352694427715       18.72040974767270
H            5.54354675384461       -5.11461797621877       18.90681496924682
H            5.49502593037206       -3.47067884950954       18.27685446795417
H           10.76271225549138       -4.41798286688917        5.53218753002448
H           13.22833233447169      -10.22852509718515        6.70894225051116
H           12.06653021231524      -11.97732443977013        5.41575427144636
H           10.60930616459425      -11.38294736872520        3.52609900958468
H           10.27863593473008       -9.02255497493497        2.88978458563089
