101
 energy: -17.825634199969 gnorm: 0.000493818957 xtb: 6.6.1 (8d0f1dd)
C            0.71280639839369        0.04753986120618        0.04376440693352
C            2.22339822576318       -0.05580171635858        0.18189901440815
C            2.77050104666842        0.77510646235599        1.34352900687869
C            4.29039283389383        0.68596667104371        1.47905116087364
C            4.84000305672474        1.53102624789997        2.62818153617780
C            6.36328386088173        1.46910297112355        2.73753486507673
C            6.92004575381163        2.36220619841087        3.84557685660719
C            8.44718488848339        2.35729061143203        3.90523962258408
C            9.00509201908032        3.32322396921506        4.94862678468913
C           10.52420834306101        3.40672882539471        4.93462867930541
N           11.02796759949575        4.44790641937219        5.84245241722696
C           10.73451472336897        5.78164756086742        5.73919655660636
C           11.34967431540290        6.48140569676730        6.76256607681947
C           11.20866327782890        7.90699664546617        7.02521866748155
C           10.09666302040298        8.68972468829142        6.77961199453973
C            8.76499502741862        8.21584042124420        6.43323592249144
C            8.26198205392354        6.95949906708430        6.72395429889387
N            6.97502128865228        6.84467241192017        6.26783938373763
C            6.09662887085815        5.66966457705161        6.40232457522659
C            6.44174424164328        4.80797355527813        7.60810833605067
C            5.48808263874056        3.63231073210107        7.81116630502398
C            5.86106964104573        2.78261354189936        9.02553724850675
C            4.90137592355142        1.61900867126078        9.27082419114108
C            5.27260061107381        0.79963350765271       10.50694758283460
C            4.30351838520245       -0.34925956632838       10.78381977458594
C            4.67479555938234       -1.15102297313408       12.03151919687719
C            3.70152736023583       -2.29345252006532       12.32473315297211
C            4.08029542313347       -3.08377847349577       13.56732692407224
C            6.61329033392242        8.05071421721779        5.66034665683845
C            5.43436209011846        8.46091936640981        5.02925916945729
C            5.36561958977048        9.73461762810166        4.52806374746515
C            6.44760415144408       10.61733293917827        4.64744679684343
C            7.60876528757174       10.22968110596143        5.26145479530738
C            7.70728280772415        8.92818339282567        5.77128631649319
C           10.45373896098109       10.08418157235652        7.05804631107894
O            9.76864260560804       11.07988332620434        6.91558239969810
N           11.76528965887315       10.06516361500098        7.53244632057127
C           12.50867815754680       11.23736937281307        7.92163482123269
C           12.27310099767687        8.76724224613319        7.54808059475421
O           13.38013157927858        8.43647858063274        7.93087125945741
C           12.10872068052985        5.52002550466790        7.51228673072240
C           12.94683572059583        5.64009828291132        8.62821518874457
C           13.51478833362540        4.50984655960732        9.15314443943736
C           13.27021418994117        3.25068982694699        8.58754594970455
C           12.46315544754750        3.11254309502839        7.48808795052080
C           11.87494081355106        4.25690483152680        6.93942499030454
H            0.33453849434021       -0.55033211164408       -0.78845347492607
H            0.40166754103058        1.07991873930733       -0.12625379482279
H            0.20910111865253       -0.29493934084546        0.94952909524162
H            2.71003117197337        0.26047538971750       -0.75028795018138
H            2.52049194027903       -1.10451525327987        0.31467501010472
H            2.29722480522535        0.45680267455449        2.28031821892310
H            2.47366786228584        1.82337584150029        1.21681375359889
H            4.76074369537254        0.99648040324828        0.53807166513474
H            4.58916814449187       -0.36058106227973        1.61439770992327
H            4.38704210988471        1.21143121118629        3.57451815197841
H            4.52418788950963        2.57347716559901        2.49920193863860
H            6.80936677240264        1.75746032008512        1.77784981047752
H            6.68296689586039        0.43263133279788        2.89978543008537
H            6.50857195312281        2.05511404717041        4.81440455896105
H            6.56484886880860        3.38894568112525        3.69629772113818
H            8.84993799620348        2.61656528109908        2.91850016394770
H            8.81108728083245        1.34200733370648        4.10386857387907
H            8.66092043322572        3.03739811167034        5.94933179863864
H            8.58820393165444        4.32291031059811        4.77905438468726
H           10.88534366949300        3.63797185004828        3.92832235761518
H           10.96755560415939        2.44509906759984        5.20503143493508
H           10.10487554805905        6.20965386116662        4.97889624226031
H            8.79380151457490        6.18760281519885        7.25011714733061
H            6.15625484345280        5.08721315423677        5.47920150444586
H            5.06413493455480        6.02158258788402        6.47803768190371
H            6.45119590765977        5.43555785313597        8.50734413856869
H            7.46689255332521        4.43277592857737        7.51299201619618
H            5.47166963122104        3.00677922020012        6.91077363918872
H            4.46201200980447        4.00381287579585        7.92019003639166
H            5.89903573065628        3.41891192162879        9.91811255523755
H            6.88203426473347        2.39965209676936        8.90710510794693
H            4.87378544405179        0.96842174278454        8.38831380843639
H            3.87879400917398        2.00125096416259        9.37614243703880
H            5.31830430930845        1.45851348420029       11.38265040100666
H            6.28990873685914        0.40517136198976       10.39544710357784
H            4.26254472040285       -1.01606542048562        9.91403980838253
H            3.28550818140227        0.04506415538642       10.88907262251452
H            4.72499548263321       -0.48023708666397       12.89788151111741
H            5.69027923798553       -1.55107091198675       11.92321894696802
H            3.65114741321804       -2.95967724921919       11.45338053155785
H            2.68685832979997       -1.88713681997132       12.43003911502963
H            5.07304703721704       -3.52621211237046       13.46642967321006
H            3.37777626537054       -3.89570614902298       13.76806427661340
H            4.10251918624866       -2.44334460378184       14.45099404956600
H            4.60671120392028        7.77978069303072        4.94309604998681
H            4.46383953280961       10.06685557214016        4.04038868457008
H            6.36016338734853       11.61847366851404        4.25839975298018
H            8.42863950836723       10.91164428748381        5.39702229677821
H           11.82005546464742       12.06072810267961        8.10508538707387
H           13.19715046459065       11.51441050756731        7.12568477357777
H           13.07519333875502       11.02645432109366        8.82690890081966
H           13.16234038422318        6.61764015695676        9.02179350753213
H           14.16733042738214        4.58965994357815       10.00700688942566
H           13.73178169224808        2.37873744134403        9.02123653126254
H           12.27859333047481        2.14886511443081        7.04841733596588
