94
 energy: -20.117221846829 gnorm: 0.000417338556 xtb: 6.6.1 (8d0f1dd)
C            2.20178221535389        3.45388089736896       -0.71282805132656
C            3.42365019014450        2.55367798200589       -0.81394654828236
C            4.74010482959951        3.32192107199373       -0.67876644092782
C            5.96917412279838        2.41699435097179       -0.76462236632113
C            7.28926591945229        3.17364546489546       -0.60992751117319
C            8.50532193344163        2.24945868379264       -0.65937465354947
C            9.83378642675482        2.97736408077107       -0.45260344949723
C           11.02124906369376        2.01672998331119       -0.40145724265610
C           12.35556461548608        2.71257319082490       -0.10651263062898
C           12.34523265974178        3.50964741425698        1.15935375869218
C           12.26182715552686        2.92560921412767        2.44261207878973
C           12.27397183072664        1.52056858163511        2.63762071686268
C           12.17681384260949        0.97827822349851        3.88387844686646
C           12.06892728174420        1.79978650555194        5.01353392860383
C           12.07161972724163        3.15484278166267        4.88189967734084
C           12.17460080886334        3.76348606019824        3.60550881359884
C           12.20229865810654        5.15657476420730        3.47584310512064
C           12.31265015269322        5.73075175889558        2.21811636774278
C           12.38605551522865        4.90003942018477        1.06162193233692
O           12.51375790049927        5.67780528745676       -0.07230050666835
C           12.56218487829552        6.98990317441868        0.35506385403538
C           12.76217422167038        8.15436306151997       -0.44863099713084
C           12.86504909820303        9.40066804189497        0.18311618198893
C           12.61600509758008        9.51683167976265        1.60299664810536
C           12.54471399212595       10.77672758911618        2.22329914043746
C           12.31351918690981       10.89760066822255        3.56599157334632
C           12.12868603976443        9.76200822770917        4.34634172080148
C           12.16776135694712        8.51900594760003        3.77310548090647
C           12.40475122049677        8.35964152849154        2.39940048413265
C           12.41556622922771        7.07987583074561        1.74626178931299
C           13.24312375603835       10.55546531324756       -0.64146314153120
C           12.51083497857317       10.78704234210022       -1.81160699023696
C           12.81024580456579       11.94196457432115       -2.59745452136532
O           12.18086564244498       12.34835362453988       -3.75710207662987
C           12.80649984384379       13.51317787360058       -4.15691436917630
C           12.55682084900058       14.31482568969226       -5.25854889435792
C           13.32424626556112       15.46565705651975       -5.47491493347682
C           13.10150288565599       16.30993144172784       -6.59048726502228
C           13.85839831257209       17.42669099338452       -6.78366520482545
C           14.87591943739168       17.76468196823551       -5.87945765546439
C           15.12551739729434       16.98167932064392       -4.79274425217934
C           14.36493765044029       15.80970591176081       -4.55127304914209
C           14.61032651422231       14.99225559613468       -3.44091709189761
C           13.84567794363632       13.84983546645216       -3.23706819114068
C           13.83862958374174       12.82355922504625       -2.23645760940472
C           14.64702280588946       12.56813791443723       -1.07615185213242
C           15.72770282899494       13.38014625474004       -0.69930397451916
C           16.50467255544212       13.07025404630375        0.38473431989644
C           16.23905658919877       11.92757161698411        1.13013239102822
C           15.19069635270954       11.11693617300087        0.79179337079630
C           14.35235843853066       11.41721951350482       -0.29666482218843
O           11.46732757612005        9.93243564813010       -2.18831579804334
C           11.90980198640850        8.64673077791237       -2.59338228342637
O           12.93200880285151        8.02244649020542       -1.83197144299083
H            1.26794188025487        2.89350664741051       -0.81070212644340
H            2.20852247703796        4.21893971666373       -1.49264979696593
H            2.17249993897785        3.97439135941147        0.24729102183585
H            3.41665124074075        2.01099944323394       -1.76946484502855
H            3.38056672626772        1.77034068208372       -0.04439255030505
H            4.75120464501103        3.86869552100359        0.27269207806099
H            4.79731511683376        4.09773790677937       -1.45273384019974
H            5.96387504196103        1.87583823370604       -1.71946541830230
H            5.90267966799696        1.63580590946986        0.00359102532496
H            7.28685450261639        3.72782073820873        0.33724669325148
H            7.37327346231621        3.94161783929672       -1.38906532993041
H            8.52342979422773        1.71035394291562       -1.61507754567672
H            8.39717113115388        1.46808247045266        0.10384840379603
H            9.79265820051534        3.55764865682782        0.47777039893671
H            9.98633607344679        3.72181454603106       -1.24385920365182
H           11.08310668963688        1.45961319138285       -1.34562530779637
H           10.82297243421409        1.25682839647113        0.36337735432967
H           12.59779831796678        3.39168001669581       -0.93347369566201
H           13.17846150678579        1.98789187867416       -0.07444958248077
H           12.38518249131402        0.87306336862788        1.78585095081129
H           12.18749735004366       -0.09326431959420        4.00621592088746
H           11.99036855411220        1.35294032161766        5.99195922636712
H           11.99689756606785        3.78481363225856        5.75225367156307
H           12.16203507329791        5.76150579284413        4.35969041143299
H           12.66889370466914       11.65968557259668        1.62061786720693
H           12.27008432165603       11.87454573821895        4.02049197347538
H           11.94329603154260        9.86334204534837        5.40394645385063
H           11.99302190670140        7.65462623022323        4.38382961733044
H           11.77324838937241       14.04476870567381       -5.94126515031869
H           12.32129892819612       16.05423031287285       -7.28728250357973
H           13.67622563722942       18.05859455478380       -7.63846586661263
H           15.46401969498135       18.65270791739476       -6.04904436178057
H           15.90812584368781       17.24446834917384       -4.10113413116790
H           15.38882417260603       15.26824599318606       -2.75827951020754
H           15.95921248591753       14.25488433579336       -1.27486852442977
H           17.33188626970999       13.70683712817674        0.65621218016414
H           16.86259220990909       11.68003181640898        1.97442410361741
H           15.00231817898266       10.22413006206406        1.36201530618353
H           12.27011296436713        8.72874527660683       -3.62323180376018
H           11.04013840559120        7.98288376994901       -2.59157352766627
