109
 energy: -23.774274104433 gnorm: 0.000274664413 xtb: 6.6.1 (8d0f1dd)
C            1.01795746811943        0.44823407314246        0.42177939436545
C            0.25872461256843        1.37010482270026       -0.19658623186308
C           -1.19717075288910        1.41448406436804       -0.10882282905057
C           -1.96623597413947        1.73265615044488       -1.23254107085239
C           -3.33758551066331        1.73985305213683       -1.16730929774563
C           -3.99147632045501        1.46287998254323        0.03095314028481
C           -5.44654689562687        1.45887154374751        0.10779910735834
N           -6.26147113182421        1.27015356386095       -0.93634113340784
N           -7.48178894537437        1.29183363339568       -0.50893160384611
C           -7.46188632426974        1.51904140264115        0.80937099795684
C           -8.64911578010815        1.64706467569280        1.64448011117466
C           -9.86303844193103        1.08551870359500        1.25562956079900
C          -10.97831601076893        1.21702633108246        2.04541650155798
C          -10.92960852323404        1.94489626265547        3.23841694247843
C          -12.12863644657705        2.11233858351656        4.05308315998508
C          -12.44942308841175        3.25434318062934        4.68678519752914
C          -13.64031600860445        3.43062063882105        5.50941260682131
C          -14.32126863290510        4.65179198542929        5.51293829973949
C          -15.45001764157759        4.82789457670041        6.27445877612911
C          -15.92687794049066        3.79990062387752        7.08746273749020
C          -17.11272345413013        3.98191689440581        7.91655832075410
N          -17.34922573985873        3.31409283854320        9.04235611063419
C          -18.53269935450736        3.75414616969008        9.51154632485274
C          -19.13837948521617        3.24949560543015       10.75149509537501
C          -20.51891519302327        3.15324622339964       10.91559053727200
C          -21.05466529524377        2.67942816034161       12.09212876277172
C          -20.22430833605123        2.28582774525295       13.12262927986403
C          -18.85415596132369        2.35942472425177       12.97032734216920
C          -18.31605028932670        2.83179586446518       11.79422918238624
C          -19.05711191328549        4.73241301417159        8.63423958438215
C          -20.29862682996859        5.50711759281606        8.73896206359062
C          -21.08434483370375        5.72180261219207        7.60834144924105
C          -22.25385102794600        6.44367229032639        7.69171128856122
C          -22.65622097691473        6.97223752606183        8.90211106595673
C          -21.88273356301164        6.78094292992443       10.02979768953027
C          -20.71337468244074        6.05858901526171        9.95086546595291
N          -18.14218463990941        4.85903143085985        7.63327290635038
C          -15.23796927680275        2.58786282869566        7.10400638165388
C          -14.12620042860484        2.40055156462690        6.32035378434624
C           -9.70832925538494        2.50873801475085        3.62036515311363
C           -8.58676915308249        2.34927791883281        2.84472936354469
O           -6.17714536201397        1.62727367655435        1.24262405290399
C           -3.23136709298303        1.17315428312067        1.16050306726965
C           -1.86079949372325        1.13462173190466        1.08975706037238
C            2.47312824251673        0.39744975695891        0.34596315229109
C            3.13540767455687       -0.83349326550187        0.31218377232818
C            4.50440961071473       -0.89598665549493        0.22900174002372
C            5.26946476038190        0.26991575002975        0.20697876787004
C            6.72518467167882        0.21608314681370        0.13881298994151
N            7.53235382930285        1.16691841271150        0.60112094503824
C            8.79195275080273        0.75877711798136        0.35365008645590
C            9.97496387964600        1.54812127998278        0.72303212813970
C           11.14395307207383        1.52954882969383       -0.03538394242372
C           12.23655290728904        2.27837723531448        0.34045073300051
C           12.18084767252622        3.06482381129555        1.47391633929992
C           11.02483178347715        3.10722120675562        2.22741731194467
C            9.93050649807456        2.36016867910500        1.85289701360880
C            8.76483283414380       -0.49692147170518       -0.29762901681183
C            9.88070786930564       -1.34034542635484       -0.74023804887589
C            9.82100254755418       -1.98518975207895       -1.97407652299468
C           10.86190485758857       -2.77700740142781       -2.40458878759812
C           11.97709017995611       -2.94742729616451       -1.60855737959467
C           12.04701872625956       -2.32699106231401       -0.37700525683211
C           11.00890045887016       -1.53337592236427        0.05648422169953
N            7.44748715085991       -0.81930559321312       -0.42299661271730
C            4.61426963274444        1.49932714505372        0.26331582780899
C            3.24377100246620        1.56363615058331        0.31664136801784
H            0.52429524843710       -0.33781304848033        0.96699943833199
H            0.74032379965861        2.08540692379334       -0.84087446892712
H           -1.46748663539145        1.94936605350739       -2.16146501401262
H           -3.92729548195656        1.96401864045744       -2.03924376493863
H           -9.90875482818940        0.54257582595379        0.32751229374562
H          -11.91264802233407        0.77856752917066        1.73981746723000
H          -12.81854274630358        1.28729594854752        4.09846274992258
H          -11.81869101691986        4.11434361280266        4.54038686992067
H          -13.95606389274720        5.45334091901148        4.89418148783425
H          -15.96733895993131        5.77112701384088        6.26718163432218
H          -21.16447386971688        3.44734816030796       10.10671745630533
H          -22.12412712200696        2.61516588357245       12.20851029068771
H          -20.64519341981971        1.91772309798521       14.04394232845750
H          -18.20509860819404        2.04763853760551       13.77217605458290
H          -17.24913163852547        2.88987297532575       11.66458242826834
H          -20.76932003954438        5.30216383013969        6.66864673673424
H          -22.85686632753360        6.59444426760564        6.81127727568557
H          -23.57269066754816        7.53569941062273        8.96601037819537
H          -22.19473489226093        7.19782012915195       10.97333281793460
H          -20.10371322141082        5.91365416497782       10.82592332349666
H          -18.20854331627694        5.48290344333596        6.82749393798132
H          -15.59968178378863        1.79820215977673        7.73950914221814
H          -13.60207019072156        1.46099288488953        6.34395849379488
H           -9.65138608185772        3.05749229920458        4.54438467122157
H           -7.64512897876195        2.77655820986766        3.14401420918428
H           -3.74092980815804        0.96540650961031        2.08571315156098
H           -1.28181251455604        0.90462885285036        1.96728820498142
H            2.55337267031121       -1.73869122172275        0.33605336363155
H            5.00299222962657       -1.84886458434868        0.20078939546975
H           11.18123446079926        0.92698514783272       -0.92591816868636
H           13.13660848597246        2.25095611096916       -0.25164008049405
H           13.03779303116147        3.64830160964991        1.76829902944291
H           10.97860630891298        3.72473180292743        3.10945566402197
H            9.02360254270424        2.38906601239095        2.43185068022339
H            8.95219396498907       -1.84381110648108       -2.59338641646965
H           10.80676174425995       -3.26265508507593       -3.36512491632247
H           12.79167059979213       -3.56626180952268       -1.94766242936735
H           12.91555459535396       -2.46420962949016        0.24605699346552
H           11.05615345283781       -1.05416757493109        1.01905563649310
H            7.06923960986433       -1.66497550390496       -0.85272714606675
H            5.20512057135851        2.39883783313098        0.25720607498138
H            2.75028806312730        2.51886058071341        0.36196619559404
