82
 energy: -14.505615148721 gnorm: 0.000532343377 xtb: 6.6.1 (8d0f1dd)
C            1.38491056314989        0.31796384240958       -0.68759256673777
C            2.88930900886319        0.33552275500599       -0.46841968768209
C            3.34040349793810       -0.64470749958520        0.61495636054636
C            4.85039938556253       -0.62559522704859        0.85202204623675
C            5.29016228533181       -1.58860179989190        1.95373828852521
C            6.79324712405662       -1.54751531371252        2.22551459601370
C            7.20813425519413       -2.47056396523427        3.36822319904590
C            8.68948944006355       -2.39498350175298        3.70033529737719
N            9.01618156904306       -3.18890441506785        4.88725778341421
C            9.23715680957247       -2.48810871407523        6.08943637779466
O            9.40870943806283       -1.28440260983170        6.20852192480913
C            9.17933040708638       -3.49220463916617        7.13218085855775
C            9.22377689424759       -3.64390750800382        8.52428446316915
C            9.45625329755606       -2.57088590875591        9.48641266389824
C            9.05120162556349       -2.66633433081829       10.81923545709630
C            9.32141751597546       -1.65540970139705       11.71826843792370
C            9.98661677419326       -0.52007217402681       11.30777748327064
Br          10.37097105245256        0.85203841735255       12.54913321559025
C           10.36426804113047       -0.38700377458526        9.98894564125764
C           10.09582635138396       -1.39485162226765        9.08707794403436
N            9.03398812424861       -5.00416422560182        8.76641683880257
C            9.11793431822639       -5.74294714956042       10.02659618278993
C           10.47318518970908       -5.59451427767246       10.70196832096621
C           10.51796674672493       -6.21878296848716       12.09473310313787
C           11.84383659983553       -5.97429901344308       12.81302219431075
C           11.87156763104001       -6.55035663318955       14.22815752778353
C           13.18031017060147       -6.26342476303825       14.96353645899576
C           13.20590570534767       -6.82793505734760       16.38447283749082
C           14.50686739419329       -6.53022335170819       17.11257418713194
C            8.83513149358415       -5.72137309201367        7.57024357930381
O            8.62203101272951       -6.92044191813968        7.47491349522747
C            8.93156456190754       -4.73251000783385        6.51002980105388
C            8.83696954801869       -4.55624053802554        5.12009792428373
C            8.54611913064266       -5.60698629653406        4.14979870579899
C            8.75962277962286       -5.43684227284146        2.78059459819391
C            8.44618973300773       -6.43483890724586        1.88079456469499
C            7.92571561042454       -7.63170659221657        2.32341731169722
Br           7.48633718381650       -8.98940231778957        1.08450104871228
C            7.73566029164363       -7.83643570133383        3.67272808390297
C            8.04879114972564       -6.84145309863662        4.57416925785836
H            1.07442758114452        1.02241830685497       -1.46218587540204
H            0.84987114757830        0.57944775361301        0.22702859434776
H            1.04138238558471       -0.67326284215481       -0.98845968331370
H            3.21993393602663        1.34777147654983       -0.20123309932179
H            3.41126833493148        0.10498143474773       -1.40629711579473
H            3.02179857626530       -1.66002328871667        0.34980399554978
H            2.81891959890202       -0.41938931943240        1.55310575386872
H            5.16923743214549        0.39252881626609        1.10569489627394
H            5.37550662641958       -0.86508569283124       -0.08033373229011
H            4.98949358855217       -2.61087219865213        1.69435925330322
H            4.74618862148121       -1.35836611712356        2.87785314683300
H            7.09623175364964       -0.51938874554673        2.45727454946643
H            7.34505404076282       -1.81085976718536        1.31530070798333
H            6.93211567599710       -3.50465788392832        3.13335298517836
H            6.63270747504157       -2.22348695455644        4.26838936721509
H            8.96688983705509       -1.35936831217049        3.92459930441948
H            9.32093796801602       -2.68785569021206        2.85985112979846
H            8.49479231742565       -3.52417839527780       11.14505681689067
H            9.01240014341178       -1.73752767849290       12.74761353938988
H           10.86123137604841        0.51581586065638        9.67317329850144
H           10.34858874648090       -1.26641263418553        8.04953768984621
H            8.92102720099324       -6.79683906447275        9.80324276394341
H            8.30171953807669       -5.42643375816477       10.67955521924303
H           10.73412869549790       -4.53298225603726       10.76980855486605
H           11.25067482102650       -6.03172695577130       10.06461148686461
H           10.32216121254586       -7.29546276893366       12.02612699701946
H            9.69671389013835       -5.81716618015430       12.70061947209791
H           12.04432650779121       -4.89669397768174       12.85295269794037
H           12.66730518311586       -6.39564394467909       12.22406531808349
H           11.69752802994503       -7.63234768564225       14.18993940101831
H           11.03080897991019       -6.14679487748837       14.80516152225980
H           13.35402207515027       -5.18100628880913       14.99537742164514
H           14.02205335799354       -6.66968835183747       14.38992270652109
H           13.03252644806151       -7.91136854547293       16.34728554311899
H           12.35589294531307       -6.42413272114581       16.94997922878650
H           15.36158560132731       -6.95447437521020       16.58293322427119
H           14.51294447377512       -6.93774891724472       18.12576960100791
H           14.67835919888729       -5.45520174560318       17.19041163773949
H            9.20815696713692       -4.53207002520742        2.42028295269299
H            8.61060209505349       -6.29505700529512        0.82470558398835
H            7.35130697314416       -8.78481517775611        4.01136614496624
H            7.95030893192209       -7.02605762968446        5.62852120079246
