130
 energy: -25.414574294280 gnorm: 0.000804486242 xtb: 6.6.1 (8d0f1dd)
C            2.30758323633431        0.84715249916189        0.39664214762082
C            3.67069315979521        0.25131546955171        0.70890553055204
C            4.24955917520264       -0.54853686641088       -0.45868622286162
C            5.61497542072599       -1.15905374402800       -0.14471794544460
C            6.15998632459714       -2.02065208938668       -1.28238149182159
C            7.53574831379106       -2.61091216743422       -0.97774957777677
C            8.00397666457845       -3.60192567557371       -2.04048562286009
C            9.38109007263780       -4.18531269516603       -1.75135880003836
N            9.68436662734026       -5.33099424314694       -2.60854213631192
C           10.63067144982141       -5.13860264280673       -3.63633560605030
O           11.27868995408369       -4.13188669267117       -3.86796146356298
C           10.65288111151143       -6.39565906492848       -4.35201188157968
C           11.28234139045200       -7.02351658990140       -5.43993712526541
C           12.31244300777319       -6.41396192272584       -6.28659746315228
C           12.11265788010299       -6.24860111583597       -7.66085023075271
C           13.07400833545503       -5.67125163001401       -8.44611490993456
C           14.27011484884620       -5.19145808067452       -7.89386611053379
C           15.32205253036700       -4.61895140123990       -8.71325072201216
C           15.19146970793371       -3.95299552735616       -9.90803117817932
C           16.35482942295595       -3.79937524848307      -10.79600568703540
C           17.67186666793881       -3.85669240378527      -10.33079242988945
C           18.73592715803506       -3.77623303415406      -11.19804336765439
C           18.51919226631831       -3.63902953249967      -12.55681274415383
C           17.23455712786331       -3.56928664911910      -13.03962917642213
C           16.14823969722532       -3.63798745147681      -12.17949085798665
C           14.78829342092036       -3.52709745286278      -12.72581456687676
O           14.57941579033850       -3.60124092489734      -13.92301361525145
C           13.69728301158422       -3.27152599411684      -11.77596520034352
C           12.47279376709865       -2.81664976650536      -12.24459157751655
C           11.46848847680414       -2.47458114503168      -11.37049903101670
C           11.68266847096259       -2.56670375887883      -10.00732578211330
C           12.88579794051690       -3.02623039580919       -9.52719567260702
C           13.90630329908904       -3.42763484666962      -10.39354521928797
C           14.46138967106716       -5.34815953763766       -6.51409379541573
C           13.50143916376236       -5.93083324663306       -5.72917836505277
N           10.76251066715136       -8.30843896104959       -5.50761391872616
C           11.30346887152362       -9.46804572055634       -6.22498057936425
C           11.21322212860403       -9.36519131281767       -7.73761352432774
C           11.63101887873090      -10.64657208853352       -8.45644523112346
C           11.66246556814167      -10.48283517322662       -9.97557462429820
C           12.13431407838368      -11.73842840670828      -10.70735393398307
C           12.21951710746225      -11.54633508422806      -12.22146392473395
C           12.71076126069058      -12.79240652715872      -12.95906427686308
C           12.81035749719016      -12.58494279546467      -14.46194102870379
C            9.79440601207325       -8.51255150209180       -4.49641746928003
O            9.17067067046656       -9.54254535226705       -4.30234575028365
C            9.73228076682613       -7.26017379224526       -3.74961368869060
C            9.12507728845051       -6.60712370700158       -2.65284316278345
C            8.10434608391843       -7.18389137827494       -1.79155858555105
C            7.62497530920500       -6.53825236723098       -0.64688556539888
C            6.63310661357737       -7.08516800970841        0.12246400318961
C            6.05308318734119       -8.31594985555180       -0.20724202537059
C            5.02369945450539       -8.92132006313460        0.61841660212202
C            4.07816941115824       -8.27522444222372        1.37910846835839
C            3.39399729695848       -8.98845888472851        2.46936248440487
C            3.30215478673782      -10.38273676119400        2.51758066571054
C            2.71996664790813      -11.02110726188247        3.58737083709836
C            2.21300341700698      -10.28825315273056        4.64456235722704
C            2.27953660854119       -8.91609848606198        4.61774047036069
C            2.85383892706359       -8.25369363710748        3.54251780451595
C            2.88050920927160       -6.78458588902545        3.53565488019363
O            2.59908553828496       -6.14183889545900        4.53073464194849
C            3.20848733349845       -6.11913050968805        2.26839830330975
C            2.92557563635443       -4.76941319608992        2.11252598245950
C            3.12359107794852       -4.14414436319087        0.90485344632122
C            3.59602642710441       -4.86851855059177       -0.17415329719017
C            3.89659666083155       -6.20208550490523       -0.03151265936458
C            3.74744019054649       -6.85322304702259        1.19620232653854
C            6.56768138105673       -8.99400222735572       -1.31843788729104
C            7.55752051827268       -8.43886323131822       -2.08602292621912
H            1.90468342255537        1.41336384306322        1.23905500938266
H            1.58412219963166        0.06855783020823        0.14881122189863
H            2.35885667173204        1.52302384099355       -0.45867421887322
H            3.60590751324167       -0.39520655029856        1.59387657391287
H            4.37551308176946        1.04498954042352        0.98908688902308
H            4.32709491348362        0.09319043989213       -1.34455753476543
H            3.54831467433779       -1.34116249214765       -0.74508711444857
H            5.54657586201084       -1.76127931492559        0.76932366327419
H            6.33052285153474       -0.36252678870354        0.09159097107566
H            6.20558124423623       -1.43278347410999       -2.20695431239940
H            5.45409571323641       -2.83133875626056       -1.49634881300774
H            7.51116417132854       -3.10846405131177       -0.00072844702398
H            8.27163645482711       -1.80533028934454       -0.86936376337125
H            8.00952349558105       -3.12458217121282       -3.02755584877126
H            7.27407088192835       -4.41431150969016       -2.13153927132450
H            9.50180943593506       -4.47705815364718       -0.70585325390852
H           10.15391743863947       -3.42899372360233       -1.92641193979086
H           11.17193116463420       -6.54961900309427       -8.08865907894225
H           12.91872455419148       -5.58674626885334       -9.50746950981140
H           16.32082789762202       -4.83319145115739       -8.37510115017669
H           17.86091815579674       -3.94247337044815       -9.27583983427859
H           19.74362531043655       -3.82084177674821      -10.81856006985171
H           19.35493395688045       -3.58055303885123      -13.23459743262179
H           17.04582990964078       -3.45560419071319      -14.09360751938741
H           12.33613846221158       -2.72035636199102      -13.30828434928515
H           10.52356704804320       -2.11804556204192      -11.74630960884117
H           10.90409956803288       -2.27873902857358       -9.32013422797245
H           13.05133117558073       -3.07826909795904       -8.46528144913369
H           15.37363693594122       -4.98700377692881       -6.07129631523503
H           13.64556765743933       -6.01869193020901       -4.66600845686558
H           10.74875797293016      -10.34559642990211       -5.87675214389291
H           12.33944375929316       -9.61501306281565       -5.90585755980524
H           11.85142427302409       -8.54795179356197       -8.08463976750218
H           10.19298585378786       -9.08656539204810       -8.02578700970458
H           10.95701635484271      -11.46646621701639       -8.18114179127720
H           12.62105925035392      -10.95805207536558       -8.10196668326859
H           12.31551288346826       -9.64144103688051      -10.23793525522839
H           10.66828452505437      -10.19399242871791      -10.33730650962335
H           11.46463243375148      -12.57532433166747      -10.47610932137160
H           13.11454756279674      -12.04206078749333      -10.32066346107165
H           12.88195560428833      -10.70203931532391      -12.44729400025282
H           11.23847658755423      -11.24953357787948      -12.61126712428212
H           12.04102201678066      -13.63327787992222      -12.73638147970476
H           13.68628490396504      -13.09191245069598      -12.55409079687440
H           11.84200745988707      -12.31794306347306      -14.88851894589834
H           13.16080358375610      -13.48129213290267      -14.97794344971766
H           13.50181875833218      -11.77588938770640      -14.70347452838766
H            8.04894734365555       -5.60331389005461       -0.34286314977367
H            6.29764437518699       -6.57488896516396        1.00877927869662
H            5.08762564931120       -9.99172972980515        0.70686079541185
H            3.67385396159039      -10.97014760817898        1.69746879889665
H            2.65997212335324      -12.09702043447704        3.60475244914362
H            1.76423754840459      -10.79174484891758        5.48503178492814
H            1.88591622596691       -8.32779410989463        5.42917138588201
H            2.52630100208226       -4.23062312249047        2.95489396916241
H            2.88921573003867       -3.09851079248714        0.79506934445633
H            3.71992791208551       -4.38885575149184       -1.13077441359502
H            4.24632505910605       -6.76265653868557       -0.88051968913926
H            6.16724856917677       -9.96081675913515       -1.57095594707787
H            7.94515181598149       -8.98316374526087       -2.92777690440468
