67
 energy: -12.463158706480 gnorm: 0.000538849700 xtb: 6.6.1 (8d0f1dd)
C            0.67546839581135       -0.11103328249682       -0.20852030007477
C            2.19261389046237       -0.07122379807928       -0.12074338897072
C            2.78167517278065        1.24643159759351       -0.62557180198010
C            4.30511920810196        1.30860260246167       -0.51357889307733
C            4.88547100559277        2.62747508992544       -1.02301720780185
C            6.40468336535261        2.71725182478953       -0.87851643683510
C            6.96465567077157        4.05158912020570       -1.36794623102090
C            8.46789416744170        4.19127227263664       -1.16766840398280
N            8.96131572750381        5.51775758807551       -1.59389414600338
C            8.34030795628204        6.68643517904136       -1.06642477640398
C            7.87416810024046        6.71752892607402        0.24617991855416
C            7.25706048726832        7.83790830284390        0.75298030422240
C            7.08816803916412        8.97183530703083       -0.03096755894206
C            6.42759080038897       10.10046093134445        0.48279598806132
C            5.80898150893644       11.04168315440776        0.95504437281946
C            5.04746331162029       12.08100309081819        1.51847366813382
C            3.93402297197876       11.79102912300248        2.29609773058264
C            3.17733507764448       12.79743130801967        2.85281284862159
C            1.96635076361756       12.43231420114148        3.69093727454728
F            1.07706275090858       11.79588871972298        2.90166736963352
F            2.36580380614149       11.61437457708209        4.68608431195861
F            1.42141596293030       13.55622169450900        4.19866796139345
C            3.52428114256457       14.11543811245373        2.63720315396670
C            4.62621573465327       14.42468191734700        1.86676227988971
C            5.01055400641896       15.87521569754502        1.64231221596137
F            3.91836509774341       16.55286478789603        1.23453842961723
F            5.46439402780058       16.38320044714897        2.80592304673210
F            5.97485309176560       15.93536691585189        0.70092088535723
C            5.38143072918296       13.41327357241734        1.31412041199156
C            7.56682124114895        8.94935777326259       -1.34003369797582
C            8.17999876092060        7.83086799915858       -1.85779910607853
S            8.71126436620865        7.87125265562150       -3.54245267252953
C           10.00341188260851        6.66700545727088       -3.49171612036756
C           11.02728106562729        6.77435013243704       -4.40139276037748
C           12.05916968144468        5.84064251696505       -4.44009991293295
C           13.11707522537529        5.99621241929767       -5.42292596177677
O           13.16729403341132        6.88344991535528       -6.23267605348238
C           12.04309895241056        4.78667256890643       -3.53339743109350
C           11.02560841461726        4.67398226069604       -2.61643775577882
C            9.98732401403595        5.60666090654880       -2.57321549134174
H            0.26866198280090       -1.05824624469636        0.15047240902291
H            0.33618201350533        0.02316488294804       -1.23655882774944
H            0.22503235579696        0.68531791358743        0.38565940269539
H            2.62571121018207       -0.90323026060039       -0.69016229153920
H            2.51373976215714       -0.23788838412350        0.91518282632111
H            2.33933305799624        2.08167469975940       -0.07044108430717
H            2.48258969018763        1.40740165574315       -1.66767354077701
H            4.75086928108029        0.47233219805440       -1.06412895837892
H            4.60284197004031        1.15501187362695        0.53001306747287
H            4.41827803798587        3.46230071866801       -0.48796197424886
H            4.60672989435139        2.77137367973926       -2.07317932139030
H            6.88000544135759        1.89308031927959       -1.42234536164223
H            6.68221507128601        2.56648303085600        0.17101904252772
H            6.44940273886735        4.87090895306551       -0.85528819455140
H            6.72603096533607        4.19176009027416       -2.42839325936114
H            8.98402473543396        3.41575432240157       -1.73817967836619
H            8.74230222602529        4.03354015331113       -0.12191256827238
H            8.01429255758663        5.85600388670555        0.87363004782564
H            6.89533059207076        7.84838336521477        1.76691459468741
H            3.65206934966796       10.76756441206898        2.47122871079811
H            2.93009843768209       14.90418736913047        3.06925865632905
H            6.23802860342888       13.66813444055248        0.71499272996634
H            7.44080895486179        9.81785287182344       -1.96303686715563
H           11.03912863066069        7.58847923545973       -5.10620970293939
H           13.92182223389697        5.27465309974460       -5.44354326601844
H           12.84147589154994        4.06514852485267       -3.55124439842201
H           11.04840470533586        3.88133960623044       -1.89015825574831
