61
 energy: -11.631820357862 gnorm: 0.000401212829 xtb: 6.6.1 (8d0f1dd)
C            0.99871248245545        0.34892368383955        0.11614987204289
C            2.49998932685971        0.11790634117771        0.18153378059318
C            3.05166783190363       -0.54874196552545       -1.07926472471408
C            4.55628014887728       -0.80948242519829       -1.01196988660357
C            5.09923760692678       -1.49619852911419       -2.26498660392491
C            6.59226321852094       -1.80995960920431       -2.17725814041839
C            7.12181283416865       -2.53953586807324       -3.41091292588969
C            8.59166715779958       -2.92689867132812       -3.28527316855185
N            9.06516361698422       -3.77462401327665       -4.39687139663552
C            9.61674083784738       -3.13943455933058       -5.54644919402902
C            9.38390919733815       -1.78713863683322       -5.80316095515168
C            9.88548303144081       -1.16915068888484       -6.92727719764660
C           10.64696403250108       -1.87663530330279       -7.84738635388966
C           11.16681079757050       -1.25664323608775       -8.99804189820330
C           11.62842811993466       -0.72725814026611       -9.99808213914479
C           12.16984108444990       -0.12233238740469      -11.14918170637044
C           12.17734683789248        1.26170939255760      -11.28848080026341
C           12.70743259308056        1.85271680452804      -12.41386432291972
C           13.24315036048312        1.07862488752446      -13.42716267512238
F           13.76665062869745        1.66341324188843      -14.53514623798039
C           13.23998927626599       -0.29837421412640      -13.29709165166034
C           12.71073185567603       -0.89304462395054      -12.17318997517240
C           10.89266355338523       -3.22452028189484       -7.59229762079175
C           10.39960063103873       -3.84979229652944       -6.46783069361280
S           10.84271402580358       -5.54397651914545       -6.25317933841469
C            9.60504989959996       -6.06899722755788       -5.11168031093578
C            9.37803291763550       -7.42346261456934       -5.03069527267447
C            8.46656442578867       -7.95540756549644       -4.12353644687606
C            8.26430118605547       -9.39312334217891       -4.07323843004099
O            8.82966823900453      -10.19051661935154       -4.77465641865098
C            7.78537097339739       -7.08494891216476       -3.28213769734738
C            8.00003145833981       -5.72942055582454       -3.36282475673118
C            8.89540593536957       -5.18061923752645       -4.28727921807931
H            0.61667214729411        0.82536085980110        1.02139846625914
H            0.46014435775835       -0.59161167566696       -0.01148511320235
H            0.73382505557791        0.98777600455373       -0.72794300673446
H            2.74874316861929       -0.49834178177106        1.05534281935851
H            3.02250730508807        1.06895976524519        0.34748050555531
H            2.82346587188069        0.07117585607440       -1.95444100798960
H            2.52354163250740       -1.49359367176117       -1.25478186729238
H            4.78267515307744       -1.42188350152068       -0.13097843139954
H            5.08923848773275        0.13443891795980       -0.84696912560191
H            4.90303745459253       -0.87168355138502       -3.14455953343394
H            4.54137790302025       -2.42309757888193       -2.44408523836830
H            6.78539239415739       -2.41584303615350       -1.28392929168880
H            7.15906419747540       -0.88439552359640       -2.02173695008737
H            6.96610794327397       -1.92367778452452       -4.30321658895787
H            6.51794199013978       -3.43468196613473       -3.59486125440459
H            8.76950462053852       -3.46215405452039       -2.34828514509725
H            9.22570641609398       -2.03841915750045       -3.21948240138908
H            8.79353038249792       -1.20981530557142       -5.11625069655231
H            9.69031124597382       -0.12581192188375       -7.10744183480271
H           11.76179870408569        1.86747935269585      -10.50145536858755
H           12.71517154623740        2.92246520152045      -12.52510689690936
H           13.65912642405836       -0.89086146980212      -14.09090898482318
H           12.71027114666248       -1.96519060196396      -12.07516464295559
H           11.49247216567983       -3.78931152464717       -8.28535495726504
H            9.92357261877681       -8.09719566057081       -5.66976659293539
H            7.55702784120969       -9.78999485668270       -3.35883590554007
H            7.08543675612553       -7.48401698000835       -2.56829754830505
H            7.45708894674439       -5.08245066069454       -2.69908890099968
