88
 energy: -15.428166821470 gnorm: 0.000653315543 xtb: 6.6.1 (8d0f1dd)
C            1.99715376364774       -0.42266495425766       -1.00998175212244
C            3.34349223092097       -0.64617314454203       -0.33974793581235
C            3.67430182394665        0.42941622252068        0.69538121297086
C            5.01833186146008        0.20284251383164        1.38681817694595
C            5.35269417743039        1.29032009659918        2.40631260263187
C            6.70274825113268        1.07707342211758        3.08900873779832
C            7.06214984684078        2.20890170792330        4.04840555198146
C            8.46842396548246        2.08454859332857        4.62357931670015
O            8.91507899017823        3.30603747830616        5.22365722011773
C           10.32426978769909        3.40395544876189        5.33378581581659
C           10.89441459883634        3.38823211770766        6.60024837123040
C           12.26917955489872        3.41039488737554        6.80776316216190
C           12.76061476617706        3.38439452404375        8.16648626819548
C           14.05265667508009        3.38313197889442        8.53602019086570
C           14.54607840790213        3.35352917206269        9.89727960889565
C           13.72158556133972        3.33630885546807       11.01629685309737
C           14.28121804044964        3.30492762200524       12.26910469316647
N           15.58157229297665        3.28934327877468       12.51539165928178
C           16.36241480409943        3.30595610591956       11.44697973616839
C           15.91224217687436        3.33718310954924       10.15136319193525
C           13.12993619902195        3.45294722230272        5.67632199637873
O           14.51329192461405        3.46637838211066        5.88344346193579
C           15.31176802478861        3.69547688087235        4.72681702504587
C           16.78384689064333        3.83810096712227        5.08405497990857
C           17.67307651628591        4.10085825402347        3.87118024909285
C           19.14718641181856        4.26130520844837        4.24035998779934
C           20.04090711034067        4.53602079859628        3.03171976253390
C           21.51564038909455        4.68949195677246        3.40310249114504
C           22.41108555865137        4.97253227913498        2.19628173339946
C           23.87926433605395        5.10047567771931        2.56991764286357
C           12.55638733403169        3.48494383166840        4.40888242728813
C           11.18063580397407        3.48911460570371        4.20400661729994
C           10.66278187718370        3.58138626048164        2.85460666048440
C            9.43911308572284        4.04617008341189        2.54660496564728
C            8.83611491006558        4.04380522747837        1.22921266063022
C            9.41563716882565        3.43181537237275        0.12412552187347
C            8.74721240484985        3.42782789963920       -1.07455275602285
N            7.55769813839259        3.97153268671896       -1.27793975020295
C            7.01189881387593        4.55629120740298       -0.22363083480178
C            7.58886931133762        4.62007123008164        1.01942747662652
H            1.77189980791319       -1.19625537205765       -1.74752156523920
H            1.96705793812327        0.53967397804223       -1.52430045658517
H            1.18727947733220       -0.42157413805847       -0.27805426292958
H            4.14068592721596       -0.68044619576208       -1.09416653947612
H            3.36678999608020       -1.63253768787143        0.14225497908883
H            2.87685532727874        0.47526751319558        1.44705139971361
H            3.66948308665563        1.41560885248107        0.21521050730980
H            5.81430871610044        0.14792809529435        0.63414709010832
H            5.02152978731485       -0.77775797476434        1.87802046137980
H            4.56059607644008        1.34746594873644        3.16261540243104
H            5.34451412230855        2.26881398030103        1.91047563202084
H            7.48410548675220        0.98638257737768        2.32426543113265
H            6.70970844987404        0.11829152261308        3.62119002095806
H            6.33037254137855        2.27386725009165        4.86160174161833
H            6.97878494235782        3.16512690913158        3.52139001049376
H            9.17977764771834        1.80992353849128        3.83800656103436
H            8.52351512271364        1.29493003747291        5.38082269179712
H           10.23347924237541        3.33779743355517        7.44567762898057
H           12.01234255810743        3.36201220739476        8.93780794205630
H           14.79813565586853        3.40230088632964        7.76462657141428
H           12.65224039066001        3.34687380044167       10.90371502803361
H           13.63502706028249        3.29161807620348       13.13370242200946
H           17.42515890384173        3.29117589412899       11.63537419280762
H           16.60688036014784        3.34871909857620        9.32885433790121
H           14.94969267216515        4.60528656726746        4.23572443358951
H           15.16459704074205        2.85756266398986        4.03702036354868
H           17.11736066732117        2.93413810340455        5.60623082020351
H           16.89844377291742        4.64715253544538        5.81444743378389
H           17.32446269776643        4.99885598425619        3.34673781692549
H           17.55970106769582        3.28528997900709        3.14663743468325
H           19.49646562736421        3.36091299853831        4.76014078929512
H           19.25714066243690        5.07188929285841        4.97097825139555
H           19.69474076356205        5.43967036313555        2.51542950713859
H           19.92758462067009        3.72815369099358        2.29859201641673
H           21.86236651292394        3.78305695875490        3.91417700345862
H           21.62817759920977        5.49258170957282        4.14165886057519
H           22.06669223551253        5.88737158703057        1.69593008518913
H           22.27873760428023        4.17591022272561        1.45217200890892
H           24.03547917292080        5.90905648522769        3.28641342919439
H           24.50804411852808        5.30589694895823        1.70063306947001
H           24.24981844697641        4.18438055958250        3.03370626069706
H           13.18968943529477        3.52613895209526        3.54348816211183
H           11.31631375671464        3.26980376726271        2.05940003288977
H            8.83607606633467        4.42347258490864        3.35283704306106
H           10.37248817949991        2.94858507580345        0.21105016266102
H            9.20137905925452        2.94643690961064       -1.92729089438639
H            6.04212601762558        5.00467036247520       -0.37691148947002
H            7.08316979053967        5.10980439725654        1.83391516965623
