114
 energy: -21.243696960960 gnorm: 0.000787036256 xtb: 6.6.1 (8d0f1dd)
C            1.99883283802972       -0.28981244854547        3.74112932544251
C            3.31894679992149       -0.99975958493792        3.99428484314645
C            3.98608894424685       -1.48524497608320        2.70721394914179
C            5.32216419359933       -2.18646389682897        2.95095094788111
C            5.99173129013090       -2.65737134001386        1.66071071500340
C            7.34334369091614       -3.33042097817305        1.89596423040112
C            8.01802137134658       -3.77465575678990        0.60015631060864
C            9.38350654431806       -4.40835481005197        0.82074762022792
O            9.99378365138868       -4.77755494768083       -0.41018964335413
C           11.29336301837293       -5.26432053939534       -0.30063236767985
C           11.97906785539145       -5.54717409581771       -1.48725148302917
C           13.26502944534639       -6.01558342959211       -1.46952946203323
C           13.94813211773056       -6.22700714803133       -0.27112139873556
C           15.32300696669085       -6.69700465814864       -0.24149351781073
C           16.09508087015445       -7.05116709617684        0.92109724854793
C           16.05357493908503       -7.13369053676737        2.36134412306171
N           17.31343435868565       -7.58854161502327        2.72994604292967
C           18.15003816745173       -7.79479851371454        1.68124288917486
C           19.53065899788519       -8.24796923733401        1.70892371470781
C           20.29970751889104       -8.28473049431630        0.54411202602083
C           21.60499910594008       -8.69184688105722        0.55811109503760
C           22.22462388861482       -9.09548372995881        1.74588451896682
O           23.55658913837202       -9.49257888485786        1.67117067352085
C           24.13510390131606       -9.89300454479191        2.90745090501487
C           25.59075802513084      -10.30219989533513        2.73861449859655
C           26.24591249603775      -10.74642992639296        4.04419250251437
C           27.70632805316842      -11.15932709272801        3.86563297478486
C           28.36776476168384      -11.60487883332623        5.16897369507446
C           29.82570899156284      -12.02441802608339        4.98431874561388
C           30.49320442574074      -12.46627727100748        6.28705035219377
C           31.94041708657473      -12.88835114838255        6.09286110416084
C           21.45582574053628       -9.07304114862233        2.91549997751362
C           20.14869156562353       -8.66391303259354        2.88944004225344
C           17.37623237386061       -7.44327882888189        0.51905668432425
C           17.43223740981952       -7.32034681123420       -0.91783034340850
N           16.16904132353083       -6.87665786266192       -1.28741508557949
B           15.89065493698157       -6.63611506307654       -2.76807566262888
F           15.49922858883694       -5.31744241334319       -2.96744728068664
F           14.93079538871874       -7.53178758898201       -3.22357184600249
N           17.17449726741363       -6.88297989971620       -3.54652081456821
C           18.29655821075343       -7.30859072154726       -2.97149772736214
S           19.52492274334624       -7.50359590802629       -4.22945875014815
C           18.41660760335331       -6.98937009808870       -5.48918998856497
C           18.60684422815100       -6.85871096672508       -6.85739395948553
C           17.56144178932617       -6.43136793843514       -7.64205630180935
C           16.32024116382146       -6.13054740579387       -7.07913480456569
C           16.11799029738512       -6.25585034918993       -5.72919079117830
C           17.17403190541699       -6.68861546843713       -4.92751417474279
N           18.49077493707798       -7.55179787198159       -1.66921223290730
B           17.60921808422501       -7.77805538269077        4.21512352581740
F           17.82492344469771       -9.12323295343103        4.48951204684026
F           18.69837739028050       -6.99756061765339        4.58384636919770
N           16.39437876687931       -7.32194200232552        5.01030227218331
C           15.26907627586405       -6.90543693480421        4.43464331968010
S           14.10715647615871       -6.50848865379074        5.70807733113737
C           15.24285089813751       -6.93971220872318        6.97415206623422
C           15.10370352647631       -6.91079328716175        8.35434894699269
C           16.15870750262692       -7.30599268469223        9.14290626420553
C           17.35889509603352       -7.73147367114797        8.57154455653122
C           17.51045980736682       -7.76366334703797        7.20951812856523
C           16.44447040833406       -7.36474960763717        6.40348305301491
N           15.03151530193017       -6.79320561883265        3.12168010027327
C           13.25222481754273       -5.96248083494147        0.91071801159632
C           11.96643692905701       -5.49389474667131        0.90484713201555
H            1.53313187483417        0.05268790628361        4.66739715740703
H            1.28680695951178       -0.94723185372769        3.23941709043600
H            2.13678875259902        0.58309736166976        3.10100674950603
H            3.16638511967939       -1.85303372725261        4.66773513569915
H            4.00822501944986       -0.33468428273052        4.53065207182400
H            4.13550348372897       -0.63664040944055        2.02913589646723
H            3.30754282350968       -2.16052909517591        2.17255134310727
H            5.17464305872733       -3.03987901582347        3.62309740316843
H            5.99784005248124       -1.51216905311726        3.49024796078189
H            6.12047073539373       -1.80524671337705        0.98308084505248
H            5.32456556448130       -3.34565854448754        1.12873105496303
H            7.21759959919080       -4.19217079732424        2.56176165747233
H            8.00554998783630       -2.64501161473604        2.43776746910547
H            8.12805450873805       -2.91964808417451       -0.07599177836353
H            7.37536393690927       -4.48084012583646        0.06305149136787
H            9.29661281848828       -5.30653637737271        1.44170924271328
H           10.05011970550083       -3.70661672600802        1.33383636255786
H           11.46807667866903       -5.38236178251005       -2.41928049295682
H           13.76079835231879       -6.23588152232036       -2.39522188937602
H           19.84236049520604       -7.99577305053406       -0.38229201746507
H           22.18332773651960       -8.71266106488934       -0.34855890800970
H           23.54619364008563      -10.72737542158441        3.30386008204806
H           24.05141015564766       -9.05652754752026        3.60987430538372
H           26.14986082880090       -9.46677258612248        2.30296580463626
H           25.65308861636964      -11.10458238020657        1.99528883005399
H           25.67759579844748      -11.57832289740281        4.47653948023673
H           26.17823206730599       -9.93961314345366        4.78331070884849
H           28.27318299630809      -10.32744885691296        3.43126331837961
H           27.77211825815148      -11.96567912392774        3.12577254441693
H           27.79851898156476      -12.43364654874014        5.60616010954551
H           28.30739488877738      -10.79678292563327        5.90736821854685
H           30.39338136263401      -11.19696162389267        4.54241345475167
H           29.88451465545629      -12.83479925899855        4.24811089061042
H           29.91615782193456      -13.28884947773602        6.72905336863556
H           30.43229823731306      -11.65126999278428        7.01983042936220
H           32.01761259178014      -13.72302613741679        5.39423655194753
H           32.40607474354590      -13.20056261370672        7.02985644523020
H           32.53809181084110      -12.07148637273133        5.68505337658101
H           21.89146989779470       -9.38289046141769        3.84766816013179
H           19.57446700671192       -8.67219281193492        3.79583676654306
H           19.56668514644095       -7.09295925023443       -7.28364096622587
H           17.70128513428556       -6.32693888743997       -8.70523037920726
H           15.51390835599613       -5.79680207160968       -7.71100182505354
H           15.17276280873359       -6.02931259092373       -5.26801054501748
H           14.17524077572257       -6.58110366598762        8.78690967196913
H           16.05838419402774       -7.28761777721656       10.21549644261832
H           18.17387183484216       -8.03637169499717        9.20685401382377
H           18.42508172035700       -8.08362140897149        6.74218567239337
H           13.74686410487297       -6.14578722469822        1.84511643602030
H           11.46889826866268       -5.30818272814216        1.83906761588362
