108
 energy: -19.088217944902 gnorm: 0.113048253216 xtb: 6.6.1 (8d0f1dd)
C            0.65677407931409       -0.04589782010982        0.46533666094737
C            1.94549711325109        0.02454776949744        1.26832870189713
C            2.81796243856956       -1.22028826212109        1.10159371188189
C            4.12015482409236       -1.14939917611664        1.89858664384254
C            5.00523289266592       -2.38195234804569        1.71421568363907
C            6.31661645595041       -2.29524455049100        2.49384468705034
C            7.22326326279071       -3.50619128921641        2.28287874251565
C            8.54125477768694       -3.39517802752049        3.03445853984964
O            9.38939766587702       -4.51076699829257        2.78999964291169
C           10.65876003004272       -4.40756690355552        3.34537022411740
C           11.58570254339224       -5.40991993607994        3.03141839598161
C           12.87671196150647       -5.35265549190707        3.47885796565566
C           13.31690720423898       -4.29273459692323        4.28005983828702
C           14.69634821896453       -4.21875515955487        4.68757555369515
C           15.81386067719249       -5.04159125329679        3.99399403983044
C           16.42467353382814       -5.79540744831799        2.54076817236325
N           15.82747883021624       -4.11149502900230        2.52613109775236
C           17.33094239122292       -4.43139105331433        3.19603157890790
C           19.82852698869170       -6.89061354333974        3.88212204032993
C           19.03379608651499       -7.93739281782507        4.23647817226844
C           18.33481816985718       -8.58885880711912        3.26069077257189
C           18.43991401103936       -8.17346031173656        1.89513305892851
O           17.72006299761074       -8.86696676646189        0.97834552377650
C           17.87399689088687       -8.41864251009330       -0.36512531256311
C           17.13763112289739       -9.31457280098038       -1.35066126813300
C           17.32879381008654       -8.88390913760159       -2.80368871600250
C           16.67770528356154       -9.83982221930005       -3.80260605128114
C           16.89555059237538       -9.42250691110273       -5.25695978931590
C           16.29602468506941      -10.40855777924953       -6.25935635492977
C           16.52027509965799       -9.99436042768006       -7.71438334470184
C           15.94131077054435      -10.99047738942912       -8.70649303289245
C           19.29103630781889       -7.05990982767007        1.60052795750996
C           19.97467899650233       -6.43711044127017        2.60665234646863
C           17.13164312103177       -4.51177424993422        4.81320337548970
C           16.65122096353245       -3.61663593999785        5.74534732888642
N           15.24246625726322       -3.43931099948233        5.60638934240492
B           14.53445873763805       -2.44478138263029        6.50698095017175
F           13.45223718887646       -3.06086563445079        7.12445450051768
F           14.14153792265340       -1.33625006146485        5.76564957820119
N           15.49733965817435       -1.97552943374070        7.58144893250497
C           14.92451233995853       -1.16641683622040        8.48267576820589
C           15.66025539709308       -0.63294096735332        9.51021471725265
C           17.00663149106835       -0.94035255571254        9.60346780723650
C           17.58422644095710       -1.76610029247747        8.67631441496486
C           16.82508175302667       -2.30627881603420        7.62934349314195
N           17.43103968052289       -3.10774305778490        6.73715533684233
B           11.90030218319934       -8.87193181488194        0.76235760203397
F           14.65558702120957       -8.24329573977737        2.71225424822880
F           11.20657518928254      -10.04646316436627        1.01401366507468
N           11.15853464326940       -7.68112479806134        0.34940092481687
C           10.33864478711052       -6.68220133371374       -0.02525357657477
C           10.88336599848461       -5.44675166872266       -0.26440140730064
C           12.25234945079914       -5.24640763576939       -0.11853877663360
C           13.06709429118240       -6.28293014154834        0.26675908489441
C           12.49202044792272       -7.50960997365874        0.49399713794567
N           15.67152556016337       -5.14308894927388        1.55266641267163
C           12.38338202277474       -3.30744446806968        4.61706934049392
C           11.09122341765373       -3.36029618697112        4.17130433628184
H            0.04508551466498        0.84962788631914        0.59201912461922
H            0.05100023084306       -0.90224554685899        0.76571342676503
H            0.86171895585770       -0.15484661463931       -0.60085335614396
H            1.71994098466569        0.16900444915779        2.33277670532533
H            2.52227663586179        0.91212059670718        0.97781536382033
H            3.04504048540541       -1.36945596318352        0.03939782289360
H            2.25141318214238       -2.11039106207698        1.39944819389855
H            3.89439807666582       -1.01361295054133        2.96280255205949
H            4.67825746626401       -0.25116946640495        1.60917059062459
H            5.22071946923752       -2.52254599269176        0.64850042039633
H            4.45505791580011       -3.28112787031261        2.01517260311186
H            6.10379919997346       -2.17577172275829        3.56259674078178
H            6.85301924343428       -1.38321187392683        2.20670829231597
H            7.43069000744160       -3.63727052787785        1.21512220831103
H            6.70820499729086       -4.42339487728832        2.58851438688423
H            8.36503469662092       -3.33253964036542        4.11387978109260
H            9.07549902484501       -2.48949922510849        2.72694158490784
H           11.27040350395619       -6.19702534697520        2.37029547977651
H           13.57562240042186       -6.12486387558238        3.20657919693563
H           18.96409986226094       -8.23794825635202        5.27133542300918
H           17.69601101002892       -9.42111325548751        3.49465095981725
H           18.94417603891422       -8.40564084960582       -0.59956540801786
H           17.50260857341384       -7.38930504290254       -0.42530953799079
H           16.07161118642928       -9.33660237535698       -1.09762679267841
H           17.48318665000440      -10.34621965704268       -1.21873200695299
H           18.40053471323445       -8.80288618240016       -3.02252319835218
H           16.93217356693560       -7.87122323817741       -2.94502881310054
H           15.60352593508533       -9.91732313883652       -3.59558484042751
H           17.07083539206206      -10.85228167815004       -3.64960787985518
H           17.96955794017082       -9.31195224094260       -5.44999358394127
H           16.47277306230087       -8.42405802244722       -5.42176018189523
H           15.22181845375004      -10.52136875459233       -6.06896528759830
H           16.72052548738446      -11.40603460953876       -6.09215642154721
H           17.59619826823693       -9.86614092428402       -7.89280895485929
H           16.08546360620613       -8.99958308885662       -7.87924055742410
H           16.39119799789963      -11.97739793847287       -8.58309057078228
H           16.10564814796352      -10.68219597179077       -9.74146780571326
H           14.86524520620080      -11.10804011867744       -8.56590777930242
H           19.38407844860198       -6.70178269121155        0.59215257403786
H           20.61638683833773       -5.59177567320302        2.40588293720547
H           13.87492660103318       -0.95383818835740        8.36808853931367
H           15.19618439957699        0.01779385397689       10.23257391485829
H           17.59859039655365       -0.52880878215257       10.40442875771911
H           18.62944060209937       -2.01513841050323        8.73269117189249
H            9.28617597213622       -6.88504158895817       -0.11603341442943
H           10.24642638284466       -4.62279408776187       -0.53633909286741
H           12.67283446666293       -4.26787629509604       -0.27935552200816
H           14.11053858226228       -6.13613906148126        0.48616632371075
H           12.70540424419791       -2.48113848090794        5.22208764378083
H           10.40569228367840       -2.58169257137234        4.45105333815177
