73
 energy: -12.755416791151 gnorm: 0.000488483684 xtb: 6.6.1 (8d0f1dd)
C            1.10787495664446        0.68423495355911       -0.39648115316328
C            2.58796975773981        0.36006296588212       -0.27253720589512
C            3.17764621630956       -0.21737508048060       -1.55996322520576
C            4.66201444601463       -0.56042623278221       -1.43778244349344
C            5.24517058036883       -1.15681186330839       -2.71856126669681
C            6.71310245980815       -1.55626923244615       -2.57662197144781
C            7.28106978799065       -2.20015999537154       -3.83943854725337
C            8.71688121877637       -2.67532207327301       -3.66726526800553
O            9.21945416690673       -3.34683158377919       -4.81813974628738
C            9.61046971306130       -2.52861577060043       -5.88247352845208
C           10.02941497542588       -3.17198066968282       -7.05390118238150
C           10.44955729110956       -2.46068865087716       -8.14704011422581
C           10.48028393634338       -1.06465292338364       -8.13913360474757
C           10.95420851464920       -0.36853257361876       -9.30694196564175
N           11.08458091879193        0.90097096911121       -9.42398654004285
C           11.57631405320066        1.50979528724438      -10.58011930564435
C           11.16579511125799        1.06953564639693      -11.85929471280129
C           11.66984676484504        1.62056506889075      -13.00757243225057
C           12.61220383272895        2.64379236902457      -12.89624597261999
N           13.32751721970670        3.38033487396089      -13.81688949543754
C           14.13328562547104        4.24798734032606      -13.09291259864728
O           15.02081927341497        5.15457758318658      -13.64479677216091
C           15.12826643353012        5.02312535010952      -15.05116459326784
C           16.20670249720266        5.93101911982898      -15.62391772378657
C           16.37235929693308        5.78236994143597      -17.13448605863253
C           17.46965136232664        6.67903437891342      -17.70637528082136
C           17.64572629667835        6.52059030134696      -19.21690878873939
C           18.74209284510848        7.41128193749412      -19.77881803087685
N           13.95426615450710        4.09809776388511      -11.78577606604701
C           13.02601629711471        3.11290355403326      -11.62935264710177
C           12.49517138955345        2.54016434446473      -10.47084793424346
C           10.04974896604859       -0.39337287595093       -6.96066549800469
O           10.04584490255347        0.98051265533860       -6.87986623199841
C            9.62684022447785       -1.13749619848590       -5.86594219155279
H            0.69839237046804        1.09554718915054        0.52877833208039
H            0.52796859448145       -0.20676827577921       -0.64378011961271
H            0.92860360234228        1.41407608736135       -1.18790508187941
H            2.75131187328877       -0.34835010744578        0.55030385105474
H            3.14993526087882        1.25925217139740        0.01224591500387
H            3.02922384263544        0.49048153595777       -2.38428214882008
H            2.61640199195853       -1.11371128442303       -1.85046037902775
H            4.80834306658394       -1.26151973382797       -0.60731979645309
H            5.22771234491057        0.33585580539923       -1.15656391207860
H            5.13293920135404       -0.44447985229865       -3.54480120086293
H            4.65532326077236       -2.03244407424155       -3.01562068287058
H            6.82314783770457       -2.24810783438998       -1.73289786895319
H            7.31282760740612       -0.67908062377518       -2.30585545430923
H            7.21570942700089       -1.50171581878876       -4.68051770024671
H            6.65958212722171       -3.05339843670584       -4.13396061392136
H            8.77680454855828       -3.39456069996380       -2.84231392063141
H            9.39649063503477       -1.86010834807646       -3.39950309227393
H           10.01688054539204       -4.24726554413222       -7.07059337611256
H           10.77064375787513       -2.98228224201525       -9.03243588344251
H           11.26700491709208       -0.97043965885825      -10.14225609127988
H           10.43083952798661        0.28639176008724      -11.91772879626206
H           11.35983470708217        1.28201450801007      -13.97990297977637
H           13.24613708050415        3.28541304305279      -14.82825572939410
H           14.15096284086499        5.25585040925614      -15.48890269468779
H           15.35223791799280        3.97386286344518      -15.27517302087407
H           17.15612456011291        5.71893519429882      -15.11952107506245
H           15.97498942461864        6.97118900006775      -15.36905429200169
H           15.42009429988812        5.99996271096853      -17.63280363071857
H           16.58901171185814        4.73542902947262      -17.37856014457725
H           18.41940306135049        6.46556356962291      -17.20126540075904
H           17.25054774207666        7.72688790070929      -17.46839273436191
H           16.69193305534030        6.73357063494436      -19.71723654121561
H           17.85836359140309        5.46857350159857      -19.44831578589953
H           18.53049803039447        8.46518584353693      -19.58957955902201
H           18.85838237150347        7.28836394480530      -20.85786612636930
H           19.70628600217406        7.18932432526850      -19.31794698835841
H           12.81654435947085        2.88002902771195       -9.50484124603447
H           10.40041121230384        1.28845917862881       -7.74032805259996
H            9.31825420344804       -0.59609738046586       -4.99381587980008
