105
 energy: -19.469042701278 gnorm: 0.000841093592 xtb: 6.6.1 (8d0f1dd)
C            1.10946969751208       -0.07805458902719        0.10916784265128
C            2.61795644796191        0.02371614433614        0.26971916922356
C            3.19688723379621       -1.09273526606565        1.13976814336904
C            4.71349121535878       -0.99758350486627        1.30214361648124
C            5.29367097208722       -2.11590023564771        2.16716577185837
C            6.81185309755394       -2.02689163975845        2.31316739040043
C            7.39918585296702       -3.15451249117515        3.15907439575914
C            8.91548330342066       -3.08390228887735        3.26405362348730
O            9.44979104880682       -4.16285450939276        4.02339645806553
C           10.84063181337552       -4.23200011402190        4.03918344229478
C           11.69429976373895       -3.27665080569383        3.47084369211621
C           13.05642902179454       -3.43636397410092        3.51151395881270
C           13.63385887558608       -4.55132756824231        4.12136798491322
C           15.01920871839953       -4.71943544328483        4.13468238533592
C           16.23807637624214       -4.87837781138323        4.11189584467750
C           17.60874977392694       -5.06970616249152        4.04795964033102
C           18.15030835188396       -6.37676682373853        4.16966493774797
C           17.32401929579637       -7.48616816680015        4.36683862967725
C           17.83657857604609       -8.77600080869471        4.48410851968224
C           16.99886048326207       -9.90510819307644        4.68215022902722
C           17.52919432559739      -11.15162068729491        4.79227379602246
C           18.92066732749894      -11.34849970699894        4.71224185512259
C           19.75873760965922      -10.29577553748131        4.52359346099057
C           19.24793095565869       -8.97574181344681        4.40318347095060
C           20.07922950350863       -7.87752077124907        4.20838761744812
C           19.57409787392491       -6.57839030723537        4.08472672014151
C           20.43655423796699       -5.47574834386849        3.87423078923856
C           21.82068459903725       -5.67535198266035        3.77232671923699
C           23.02212851627655       -5.83918783744929        3.66449984505107
Si          24.78121196556376       -6.03765963473633        3.42987268655908
C           25.30512135002740       -4.72326334444626        2.14894171165490
C           26.80493303988566       -4.54535880309649        1.99703054516533
C           24.61860008426887       -4.98150787521704        0.81936336236836
C           25.57131238502819       -5.71548469887674        5.13369628430166
C           26.99304448242578       -6.23201991665105        5.26060996868259
C           25.44734964074583       -4.24793061172863        5.50313685854330
C           25.12975915579273       -7.83252225408022        2.87821428677278
C           23.98114491738941       -8.37941759029004        2.04769476860413
C           26.46644446224227       -8.00472394185763        2.18039520153037
C           19.89953712268012       -4.17129765234389        3.75429491526719
C           20.73027258334750       -3.06495724523082        3.54294499477416
C           20.22198292417058       -1.77576335178597        3.41999630669920
C           21.06321681945363       -0.65102494256522        3.20678067160626
C           20.53651380417436        0.59617582684472        3.09098949316548
C           19.14637892652440        0.79842877196786        3.17992234315464
C           18.30586342699745       -0.25010387744939        3.38308291373368
C           18.81184903810768       -1.57068461040321        3.51017695352392
C           17.97626119869640       -2.66583796743508        3.71711827465736
C           18.47651474877850       -3.96428667995461        3.84311213378709
C           12.78871265736175       -5.49892991380250        4.70094595650682
C           11.42686898888378       -5.34155308471968        4.66259913452168
H            0.70764656823435        0.72445647210002       -0.51384772402048
H            0.60544532730761       -0.02704823065705        1.07627883207741
H            0.82469036897583       -1.02559785529902       -0.35238792687551
H            2.88786525341496        0.99666171068911        0.70175912365710
H            3.10496173785606        0.00542633192767       -0.71454483948846
H            2.93295854176084       -2.06757303424795        0.71152514840792
H            2.71898852632285       -1.07654213176098        2.12703331365208
H            4.97835205979138       -0.02395487351913        1.73232487348552
H            5.19049842627912       -1.01194610185170        0.31442136684864
H            5.02168661548926       -3.08924925432876        1.74080782642998
H            4.82519646047498       -2.09766043175401        3.15877398475052
H            7.08533891212145       -1.05793397877249        2.74843392695685
H            7.27658981868457       -2.03432008701749        1.31958460414138
H            7.11445263667211       -4.12579019791200        2.73871156106687
H            6.96370278006650       -3.13987620845006        4.16458802135914
H            9.22385741248917       -2.14636627492569        3.73941280711723
H            9.36332896075299       -3.11647819017340        2.26481901721011
H           11.28046553783099       -2.40413945473124        2.99913738425191
H           13.70267095614458       -2.69964030241903        3.06501132005151
H           16.26100799560859       -7.34234141185841        4.42862752193254
H           15.93427540002109       -9.75771884545766        4.74319593835961
H           16.88207492562170      -12.00036121270229        4.94257023209650
H           19.32057086862552      -12.34537367198114        4.80191956599523
H           20.82250954182857      -10.44883932620936        4.46173183960280
H           21.14070270746464       -8.03353611516079        4.15389570049702
H           24.88002436277899       -3.81375110810390        2.59951800965635
H           27.27033436533015       -5.44966182381829        1.60638729009296
H           27.28488815935090       -4.31004219153243        2.94725996416539
H           27.03790578885543       -3.73607183460495        1.30224869729128
H           25.02627992495355       -5.87090711428113        0.33831510603730
H           24.75481232644539       -4.14655521138859        0.12923546207159
H           23.54591156920515       -5.13893905258042        0.94797043808247
H           24.91472781290822       -6.30878150936758        5.78779022017109
H           27.66067797036065       -5.71920241273542        4.56894951380598
H           27.05440275279509       -7.30038148871893        5.04805051725824
H           27.38382912096191       -6.07306566221644        6.26745609360762
H           26.08226156377647       -3.63132364662662        4.86624283116075
H           25.74846280708299       -4.06843392363016        6.53713866393739
H           24.42157106987289       -3.89285188360993        5.38549909434559
H           25.15407802594943       -8.35448401882357        3.84625609446542
H           23.90328200424729       -7.84876377314989        1.09843138008033
H           23.02481395202217       -8.26939921120733        2.56150244987928
H           24.11928876411458       -9.43851383846799        1.82208166159000
H           26.45301480900125       -7.53677791820921        1.19601992180250
H           26.70367012169338       -9.05995260479661        2.03164622915669
H           27.28237339617765       -7.55719323855897        2.74890738345881
H           21.79238933539122       -3.21308720460149        3.47367114378569
H           22.12666151270035       -0.80334818002842        3.13799722862519
H           21.18565438460293        1.44126408066669        2.92913622629334
H           18.74898250401919        1.79595533832771        3.08619226341194
H           17.24317560866685       -0.09230438742826        3.45126189195663
H           16.91582131676473       -2.50506153565218        3.78170274632981
H           13.22333570425039       -6.36191519001527        5.17610290790187
H           10.77657203470261       -6.07553214092305        5.10451543447114
