85
 energy: -17.311234713210 gnorm: 0.000383304905 xtb: 6.6.1 (8d0f1dd)
C            1.06661904588759       -0.04291603694565        0.06312712741016
C            2.57014003713154        0.08921903842625        0.24505410142079
C            3.13358633496085       -0.90033299880754        1.26595670942044
C            4.64757912317518       -0.78271143850481        1.43850912899006
C            5.21567252792721       -1.77534342196975        2.45249915718883
C            6.73428132220412       -1.67860392894385        2.59092452037948
C            7.31287315356060       -2.68188830757848        3.58662154495317
C            8.83075550822687       -2.61952679035800        3.67012513904097
O            9.35701126537805       -3.57467102419213        4.58469500880603
C           10.74673047115759       -3.64631604046452        4.61732157076590
C           11.60634064953871       -2.80724340719361        3.89504752664653
C           12.96720707639420       -2.96077450729595        3.96979627881092
C           13.53806486095559       -3.95337450125794        4.76776771232288
C           14.92165293102289       -4.11675278986572        4.81755657018260
C           16.14175969130964       -4.27136536616990        4.82204420676551
C           17.51173621265770       -4.45863593274272        4.78517479183833
C           18.05459490674360       -5.76483385311555        4.91885974652341
C           17.22644058203561       -6.87267331287320        5.10765519796130
C           17.73761728296981       -8.16248193033353        5.23539848591650
C           16.89744050247282       -9.28978549179794        5.42694272572372
C           17.42608102779419      -10.53603731254139        5.54715480604709
C           18.81735728932629      -10.73270581390745        5.48416902255521
C           19.65748175842547       -9.68013288328725        5.30171430956075
C           19.14870746432404       -8.36167482023261        5.17106393118696
C           19.98269311433253       -7.26203212469502        4.98143613082920
C           19.47919796285888       -5.96535150539700        4.85289644397335
C           20.34542004599262       -4.85844320170183        4.65325271847274
C           21.71714650773554       -5.05574107952222        4.56686245015562
C           22.92679958259976       -5.23474162775163        4.46702300813721
C           24.30687274281907       -5.44509696862177        4.33258613379666
C           25.18441144197332       -4.37090607971696        4.21442681856008
C           26.53824867490448       -4.58087870227230        4.07641050425974
C           27.05148686825155       -5.86559294693634        4.05206726354317
F           28.38676102981113       -6.07023320549666        3.91422013685193
C           26.18645176181860       -6.93914720354833        4.16897680155594
C           24.83191414365647       -6.73419060683504        4.30761230805726
C           19.80441420795257       -3.55182275590314        4.52798161297627
C           20.63254568396006       -2.44374822438423        4.33378170180183
C           20.12099231188330       -1.15479153378005        4.20145900411962
C           20.96004917658867       -0.02761595750002        4.00207419549031
C           20.43030466828607        1.21747019908135        3.87523989712294
C           19.03898339169953        1.41356782507292        3.93882934237548
C           18.19988871387456        0.36133440693122        4.12825570276998
C           18.70985639249299       -0.95568907476733        4.26590690979331
C           17.87601018492412       -2.05506585880160        4.46004928292233
C           18.37980219340333       -3.35011871984134        4.59378943951054
C           12.68729625951222       -4.78433147039931        5.49810739539096
C           11.32650152200123       -4.63285215558736        5.42591613089233
H            0.67710823676294        0.67025382100179       -0.66672445323137
H            0.53841333127809        0.12796222933453        1.00284543946000
H            0.79687339715095       -1.04341760482907       -0.27980677067283
H            2.82554295045912        1.11190860633563        0.55242954747468
H            3.08047504701034       -0.05289098051414       -0.71672438251002
H            2.87596633862059       -1.92360538696428        0.96700133700553
H            2.63917231009976       -0.75387353975092        2.23385272438934
H            4.90661625726927        0.23973002597281        1.73890656248224
H            5.13919645984353       -0.92714294510886        0.46883980820421
H            4.93777276903779       -2.79592755568774        2.16296021685809
H            4.74387685998274       -1.61785684755599        3.42980214254892
H            7.01474592975300       -0.66080332628270        2.88775765420866
H            7.20087765722848       -1.82710386835078        1.60957924889585
H            7.01098587642120       -3.69903078050597        3.31264193456005
H            6.88695512592494       -2.51614039074946        4.58246720148196
H            9.15717256576262       -1.62434153962914        3.99126431244385
H            9.26955321477504       -2.81537571047403        2.68554878900594
H           11.19807794032982       -2.03177199040045        3.27330685605668
H           13.61740895633783       -2.31453590156554        3.40485282397426
H           16.16277850791399       -6.72905587863575        5.15531113832769
H           15.83235986798837       -9.14225853852716        5.47536679439247
H           16.77686476619740      -11.38393298763121        5.69194365072697
H           19.21642313181460      -11.72897364000177        5.58190633985831
H           20.72165960642668       -9.83407156603081        5.25388536004902
H           21.04441583293272       -7.41855963387710        4.93194255296112
H           24.78878290391495       -3.36968894401342        4.23090762065191
H           27.21871117809394       -3.75312330129450        3.98357495687310
H           26.59521785931349       -7.93379646600171        4.14820729537200
H           24.16205246318293       -7.57233300352724        4.39739876573464
H           21.69600380977660       -2.58771003247317        4.28317162148984
H           22.02513776056931       -0.17444304991008        3.95204227367150
H           21.07839059205971        2.06502792808301        3.72354378541901
H           18.63866340915644        2.40871732804328        3.83485974673382
H           17.13554269100853        0.51428751558523        4.17582995106443
H           16.81404646795346       -1.89907016127841        4.50679838949190
H           13.11709666480843       -5.55277707134288        6.11778538032874
H           10.67305165400180       -5.27756336694983        5.98626273036388
