108
 energy: -18.593332268279 gnorm: 0.000813016167 xtb: 6.6.1 (8d0f1dd)
C            0.36485334002375       -0.04689164362429        0.79191356814744
C            1.84880395224193       -0.16754421975691        1.10037126511771
C            2.44863532680639       -1.49052541492699        0.62162785091056
C            3.93992599032414       -1.61543046135436        0.93218002238602
C            4.55059739057882       -2.92477183005796        0.43330386618268
C            6.04251271588683       -3.03773997066071        0.74341500373280
C            6.66929404070932       -4.32977648766204        0.22415779381436
C            8.16233078911768       -4.41303288610487        0.50581441403480
O            8.74035420011228       -5.60566615605600       -0.01248521709365
C           10.13730088855018       -5.65741525569280        0.06138054691940
C           10.93155441184975       -4.72761045598007        0.74199377946476
C           12.29964919508268       -4.84286209772347        0.74100026349658
C           12.93679306293119       -5.88019696572874        0.07092002292426
C           14.33474672256031       -5.96886474758552        0.05319242823712
C           15.55438874491478       -6.04246596471027        0.00572962321588
C           16.95896811955390       -6.10915242270495       -0.06468582905462
C           17.72437092896901       -4.92678823141122       -0.01233816787930
C           19.09276785172932       -4.94314632291963       -0.08565113800353
C           19.76028465257696       -6.16808857875589       -0.21733555572070
C           18.99823700256421       -7.35462661451467       -0.26616327788587
C           17.60506895359770       -7.32431007904041       -0.19139582107701
C           19.91443203022700       -8.45701802441146       -0.39209303364053
C           19.72021528605804       -9.83868830697080       -0.47171917726506
C           20.82068938280714      -10.65252130904125       -0.58078478117495
C           22.11251656892934      -10.11508188206156       -0.61071408765491
C           22.31863033336584       -8.76037147652867       -0.53224395488599
C           21.21024544520698       -7.91552206687881       -0.42082333246443
N           21.12114263201973       -6.51890411552964       -0.31926453388615
C           22.33335933634363       -5.67439224959680       -0.36290885267721
C           22.10599774687469       -4.17207173756103       -0.39710442904738
C           23.40131624678477       -3.37625810742893       -0.55682916539703
C           23.17097572851270       -1.86535107164321       -0.57971194332277
C           24.46124364073424       -1.06620938146527       -0.76031852263826
C           24.23181075285160        0.44512440199961       -0.77322614724313
C           25.52130495866133        1.24471933506287       -0.96554236954962
C           25.28758862237995        2.74724478563760       -0.97076226289966
C           12.15931497311785       -6.84187520654198       -0.61394786562027
O           12.83665341575032       -7.87167543254314       -1.27343925493493
C           12.01343369413510       -8.73572992644919       -2.04868192208147
C           12.83556415497316       -9.76042290056828       -2.81584331747199
C           11.98049154640087      -10.67392864250279       -3.69069974731665
C           12.80501445171646      -11.69481326178088       -4.47324864702783
C           11.94978383411721      -12.58854987529127       -5.37074315278664
C           12.77358127175418      -13.60088381965972       -6.16609240228586
C           11.91967041480187      -14.47985162179241       -7.08097545812229
C           12.74526801710032      -15.48098150760531       -7.87345798074444
C           10.77379496882705       -6.70572670276796       -0.59553359391137
H           -0.05012218156721        0.90370305473134        1.13523057662468
H           -0.20448195213398       -0.84549861367767        1.27153378050646
H            0.17752639982672       -0.11817232296816       -0.28130540270555
H            2.02068383071247       -0.06125928455196        2.17987912081118
H            2.39878486870883        0.66584052361484        0.64290844759233
H            2.28676074742949       -1.59868007943602       -0.45794206275113
H            1.90558783319940       -2.32831348046508        1.07609590306748
H            4.10039647354748       -1.52256930934984        2.01331560156505
H            4.47899518494072       -0.76792084702693        0.49122351635083
H            4.39114787179437       -3.01691839576764       -0.64810593265252
H            4.01560871851697       -3.77501147713512        0.87384673972947
H            6.20185402877385       -2.95982130767609        1.82590498052456
H            6.57136943551798       -2.17710537705510        0.31563404148587
H            6.50211591572258       -4.42062802227458       -0.85519885984609
H            6.16709026868937       -5.19840074288736        0.66496347229834
H            8.35152533728200       -4.38379961875127        1.58434827085053
H            8.67915774063327       -3.56007091811919        0.05236613703927
H           10.46967632824965       -3.91767194893430        1.27633628324454
H           12.90270926409817       -4.11858697637881        1.26211734706680
H           17.20414864385938       -3.98917259392500        0.08702020303906
H           19.63921456788697       -4.02111676271427       -0.03775162923398
H           17.03973916004562       -8.23725786342231       -0.23465868881443
H           18.72342712085607      -10.24259347727390       -0.44675676746212
H           20.68927614744851      -11.72039674831315       -0.64359683560091
H           22.95836250206715      -10.77767339373293       -0.69566242157338
H           23.31017295631330       -8.34423334294777       -0.55124489263875
H           22.90505341849633       -5.97577182503147       -1.24597775981666
H           22.95298612815873       -5.93886927702312        0.49922740538090
H           21.60112092408222       -3.85686234036386        0.52312431306675
H           21.42554922522163       -3.92505121692015       -1.22033907783453
H           23.91264617426066       -3.68492742091683       -1.47686822617398
H           24.09440954627089       -3.63195627012058        0.25399309600598
H           22.67139329811584       -1.55494184433673        0.34621548599681
H           22.46619139170038       -1.61248045070168       -1.38135505572321
H           24.95597715538067       -1.37159622846233       -1.69053878777672
H           25.16924573339212       -1.32463024774667        0.03669977855639
H           23.74405175492836        0.75159046253521        0.16034792005462
H           23.51741701407551        0.70267233169436       -1.56486567910977
H           26.00412070110874        0.93392761228198       -1.90176320095322
H           26.23560973384541        0.97596893207941       -0.17579166688285
H           24.60505509433436        3.03810555975359       -1.77168797273991
H           26.21536160856619        3.30699131181376       -1.11063637784988
H           24.84196659339331        3.08095136381265       -0.03160544350436
H           11.43216414036418       -8.11874643166581       -2.74267399453466
H           11.31074879699838       -9.23582166654112       -1.37336431824855
H           13.42311764305408      -10.35609920849123       -2.10795367589515
H           13.57626278787989       -9.23691800859938       -3.43113866168483
H           11.39012787246728      -10.06650505352159       -4.38767704771704
H           11.24113187840039      -11.19395868261779       -3.06934974777617
H           13.38332011676817      -12.31455141124681       -3.77696700814879
H           13.55492904889799      -11.17345179367261       -5.08085725537028
H           11.36708537863416      -11.96582918308294       -6.06064059958583
H           11.20343238917231      -13.11521807685538       -4.76345377113568
H           13.34678454502453      -14.23297657742047       -5.47670022631542
H           13.52832453096341      -13.07363197626421       -6.76254563509323
H           11.34402080370735      -13.84037367070931       -7.76357653604379
H           11.16472354346934      -15.00355565134080       -6.47935264901522
H           13.47757947142121      -14.97585749812456       -8.50637833700434
H           12.12460252111640      -16.10339012321509       -8.52231779342365
H           13.29936048391956      -16.14837016746189       -7.21049516009627
H           10.15172360585799       -7.41570903417492       -1.10416276812274
