83
 energy: -14.823654401732 gnorm: 0.000791468692 xtb: 6.6.1 (8d0f1dd)
C            0.74255609537819        0.44249614802496       -0.28971177240448
C            2.21897381778931        0.80558074154087       -0.27323864886306
C            2.83814586790464        0.70021712087176        1.12086303703392
C            4.31925021311405        1.07696722184999        1.15042060877827
C            4.93544137691031        0.95812910977871        2.54368270512441
C            6.41497842631854        1.33848424862061        2.58022685295822
C            7.03068674239235        1.19007390153077        3.96963389741624
C            8.50849011462056        1.55000703810169        4.01119066119823
O            9.06077757582560        1.35504050082872        5.30816428962855
C           10.45130621006887        1.49168533418365        5.38272735924473
C           11.26285527364999        1.98135249262663        4.35335053088674
C           12.62399402774835        2.06232458211782        4.51550115372348
C           13.23574877761483        1.66241274951851        5.69750378940335
C           14.62758897244697        1.72189042764784        5.84449965593301
C           15.83973001927534        1.71703611310342        6.00319413591799
C           17.23280186486383        1.65633136267239        6.19867968347081
C           17.99922380419814        2.83717421057993        6.29745312187832
C           19.35474345326345        2.80581669565366        6.48739529766397
C           20.00416141883925        1.56943345190376        6.58696868523163
O           21.34290215386497        1.26734778784941        6.77449934720814
C           21.44050489884131       -0.11546855658192        6.79712228722444
C           22.55598473983831       -0.94581616911430        6.95626707950900
C           22.38556467110696       -2.30579811576985        6.94068667612145
C           21.11919790736680       -2.87643482673001        6.76890408781397
C           20.00875773034744       -2.08761131539007        6.61111515023556
C           20.16764161369912       -0.69929925630958        6.62504538527916
C           19.24350972292580        0.38515535740419        6.49002378358359
C           17.86238651377560        0.43035342146201        6.29724311999095
C           12.44002454957719        1.16932224383092        6.75668961517687
O           13.09263647175155        0.76716085240461        7.92505970503544
C           12.24511814049526        0.22583243420938        8.93156765227537
C           13.03340859156161       -0.25044832980175       10.14224634110491
C           12.14229488099650       -0.83722319848828       11.23454588653870
C           12.92750217087300       -1.34363483320539       12.44332986181026
C           12.02823878212248       -1.92537621804032       13.53369001977842
C           12.80817967867053       -2.45115505437071       14.73824033219936
C           11.90445466924911       -3.02645057622249       15.82973741953399
C           12.68427728010638       -3.55687119256913       17.02207309696459
C           11.06210347718613        1.10519432827199        6.57114314726188
H            0.31101151740880        0.52016437177185       -1.29033332592970
H            0.16770520026603        1.09766792635181        0.36751609428185
H            0.58361768098399       -0.58031958547250        0.05706038949875
H            2.36180106436510        1.82425242992069       -0.65711393948060
H            2.77492560373525        0.16082372047065       -0.96657764837197
H            2.70990035418133       -0.31932482935105        1.50422377207748
H            2.28254444186420        1.33794918224673        1.81907024266333
H            4.44744534840253        2.09989355766713        0.77654811871364
H            4.87466434586777        0.44501103413668        0.44694790199209
H            4.81041840627301       -0.06671141820752        2.91389140932282
H            4.37650846957980        1.58508565540115        3.24898072971309
H            6.54142728366102        2.36938010111346        2.22784468070946
H            6.97139218756487        0.72175944818100        1.86389227278496
H            6.90398633359984        0.16153930298055        4.32623970116504
H            6.48728946781422        1.81015261751343        4.69151856570257
H            8.65865680618301        2.59795720733479        3.73022012678460
H            9.07037599312002        0.92946537475881        3.30456663788311
H           10.81970699709551        2.30412751367053        3.42905322637787
H           13.24088254739145        2.43715867593125        3.71638489925528
H           17.49082374867983        3.78308945418661        6.22095719232330
H           19.93373487379101        3.70866854760109        6.56099985843885
H           23.52593569343614       -0.50112680115065        7.08801300460903
H           23.24160674627863       -2.94904757781421        7.06279625009692
H           21.01706687247826       -3.94917042532582        6.75993728977772
H           19.03025776057006       -2.51424699889726        6.47781653080411
H           17.29488756637967       -0.47946594282942        6.22636502159248
H           11.68412183754782       -0.60665317098219        8.49295766175351
H           11.52697240270740        1.00009356414451        9.22298752999064
H           13.62134001760734        0.58368719440435       10.54151373727682
H           13.77316522562299       -0.99216296699310        9.82042294197805
H           11.54169174386168       -1.65499009657898       10.81807891928714
H           11.41280574440550       -0.08465979609387       11.55763060287700
H           13.53222327634293       -0.52844686360712       12.85886442975422
H           13.65293383474755       -2.10036179316012       12.12067072169490
H           11.41468874124112       -2.73125149861099       13.11295088384530
H           11.31044082204638       -1.16439557512432       13.86322636389823
H           13.42607478752503       -1.64748093614233       15.15685086394364
H           13.52173831558613       -3.21649809664851       14.40947938742251
H           11.28100078624179       -3.82259953777797       15.40162929297347
H           11.19385246258072       -2.25522511027523       16.15547736517488
H           13.36971205035493       -4.35217340939083       16.72336565004887
H           12.02743509746210       -3.96280369594229       17.79480172649572
H           13.28544107290238       -2.77052826914307       17.48228894425035
H           10.42496577367381        0.73869528175895        7.35167893562308
