90
 energy: -19.656294681427 gnorm: 0.000241135943 xtb: 6.6.1 (8d0f1dd)
C            1.15116232362907       -0.36338009835301        0.94297133180649
C            0.31300608538305        0.67510488676938        1.10391081884168
C           -1.10972834635411        0.58918208218587        1.37978751517746
C           -1.86593712955114        1.76403999849938        1.43279211154242
C           -3.20735663885206        1.73083093818327        1.72212334101585
C           -3.84999718733186        0.52285328074498        1.97410328004149
N           -5.24607549476627        0.49675285144031        2.30408575078629
C           -6.22273365184774       -0.35990426820242        1.75044822737578
C           -6.12285385216437       -1.35416489847956        0.77798497537366
C           -7.25755246632994       -2.03397286262859        0.40755543252171
C           -8.49521095613843       -1.73902454978977        0.98529575732565
C           -8.61366180016336       -0.75554541586744        1.93807229383012
C           -7.46950210590228       -0.05640797247587        2.32346170087240
C           -7.26067486511270        1.02093526724693        3.26267030977452
C           -8.13044092092295        1.71228289605020        4.10667247641009
C           -7.61979001956305        2.70231983822770        4.91185857937036
C           -6.25734317920853        3.01167991740772        4.89324441800026
C           -5.39030979135148        2.34079721080442        4.06572586863770
C           -5.89292056808354        1.34091008228422        3.23359821970844
C           -3.10627255031341       -0.65243594382452        1.91613556415970
C           -1.76347576124954       -0.62236128177869        1.62524233197448
C            2.58277423369231       -0.24624275166637        0.72087686644371
C            3.33817021688407       -1.38118972352156        0.41176718242618
C            4.69753860607831       -1.30051658043948        0.22110442755038
C            5.36753355266798       -0.08126430565589        0.33767991371374
C            6.83155112678112        0.01781731266828        0.16346471160359
C            7.50631537125634       -0.73599425817334       -0.79856490618194
C            8.86462209755332       -0.60947571813294       -0.97082984832192
C            9.61422971111135        0.27117361014301       -0.18544592778117
C           11.04371987464599        0.40823638623380       -0.40949944510449
C           11.87661779175073        1.12422992174496        0.36541872885988
C           13.29560860154252        1.32605542624476        0.13425940447102
C           14.04599124910799        2.03456323811845        1.07762669258169
C           15.38286777993196        2.27719835498098        0.88226121677517
C           16.02659069009814        1.82495701402074       -0.26525334738101
N           17.41722241252316        2.10678501456863       -0.47822578930137
C           18.40634861413252        1.18575897428916       -0.88750640892630
C           18.32671773642430       -0.17719647975185       -1.17069723067569
C           19.46999592947611       -0.84499593698989       -1.53655043455856
C           20.69641910581970       -0.18078259178866       -1.62195907966326
C           20.79494188130195        1.16017120255586       -1.33701352021463
C           19.64189027804044        1.85101019136662       -0.96333768223431
C           19.41287804428937        3.22782463497814       -0.59135948397959
C           20.26505719380518        4.32843491320161       -0.49521539625849
C           19.73673732005690        5.54051069204479       -0.11968988032239
C           18.37378905093750        5.67501461599610        0.15708944035453
C           17.52394072524834        4.59958674228742        0.06856807622513
C           18.04473483318153        3.35957005607977       -0.30012066078067
C           15.28895308701237        1.11175862201994       -1.20598412320519
C           13.95072690623423        0.86626633312803       -1.01244394523056
C            8.93760771824617        1.01694335683090        0.78352374683336
C            7.58034226044650        0.89253215463317        0.95226427300942
C            4.61328522376618        1.05292465689531        0.64217319309696
C            3.25501646856487        0.97409897846917        0.82905694419637
H            0.75329187255108       -1.36076119746152        0.97999255941614
H            0.71156586895253        1.66979819248410        1.02527437801265
H           -1.38097416129225        2.70654950884544        1.24388135892066
H           -3.78319213804446        2.63944157103654        1.74475850211012
H           -5.17085006238077       -1.56656179300639        0.32579443795421
H           -7.19392346619759       -2.80532594035046       -0.34239953964145
H           -9.36928409407456       -2.28816994842423        0.67582419497738
H           -9.56333389400049       -0.51718917150738        2.38371174944830
H           -9.17702487007506        1.46377958051505        4.11840556956460
H           -8.27779237394778        3.24564900013167        5.57002268843670
H           -5.88158467205960        3.78744503031132        5.54018415362266
H           -4.33875129992680        2.56461991328380        4.05863402651234
H           -3.59676116024029       -1.58597214895641        2.12962102840057
H           -1.20688305352381       -1.54207935721192        1.60263250209244
H            2.83944398700810       -2.33160526063066        0.32715346607497
H            5.26346966710427       -2.18893376764900        0.00034304312560
H            6.94460230985823       -1.40614568841520       -1.42599926591037
H            9.36676961234107       -1.19112819347724       -1.72495938170585
H           11.44408251993471       -0.10351056579905       -1.26520471299403
H           11.47600122213251        1.60226517593706        1.24027872198793
H           13.55997966649793        2.39433365077657        1.96844517809162
H           15.95437277914012        2.81029388826347        1.62176812650032
H           17.38337535012651       -0.68641760445979       -1.08879128204097
H           19.42202643637058       -1.89844195115490       -1.75884855741124
H           21.57760181887579       -0.72942554294656       -1.91151812185599
H           21.73588503384097        1.67849616228999       -1.39402299486354
H           21.31206998579868        4.21697307995717       -0.71560472580740
H           20.38101134571454        6.40079833842543       -0.04113789317583
H           17.98390751955850        6.63846989187317        0.44219132526719
H           16.47190322840278        4.70105042185566        0.26566867836700
H           15.78010041396538        0.77754317764468       -2.10304898608736
H           13.39872190810913        0.32726791175853       -1.76139757542363
H            9.48055109080670        1.71195956437836        1.39838462414593
H            7.08035609115329        1.46919695427945        1.71118991899265
H            5.10969449069258        2.00483630370331        0.71918195874925
H            2.70758421049870        1.86541479786469        1.07765283370213
