93
 energy: -16.101841653073 gnorm: 0.000721612320 xtb: 6.6.1 (8d0f1dd)
C            1.49240698334006       -0.96533640268150        0.29839545368607
C            3.00862015209531       -1.05975848276825        0.23422587599672
C            3.63985720608691        0.08954059639627       -0.55269035885264
C            5.16367296139467       -0.00201753256789       -0.62782787734007
C            5.79148764429109        1.13895967003080       -1.42771294433159
C            7.31357188708125        1.03846673453673       -1.51637876300629
C            7.93911759396429        2.16176297953631       -2.34062684012669
C            9.45101918784568        2.03759163766214       -2.45941425570984
O           10.00789963817434        3.06115053735287       -3.27767701270143
C           11.36078835946743        2.89327687840840       -3.58300636337473
C           11.91749390767047        3.73950394388003       -4.54853502157773
C           13.22892483895306        3.61815193006378       -4.93087693829780
C           14.05292816051132        2.64519736820614       -4.36126516607640
C           15.44630864686977        2.47201404762521       -4.80742114957110
C           16.04833064909747        1.28634837723595       -5.16489982268715
C           15.34931342039478        0.01402724973131       -5.35929915791812
C           15.97777477533563       -1.22376515682091       -5.17592663960929
C           15.29608596568744       -2.40023957497060       -5.34899386576691
C           13.94565700287252       -2.41441339442637       -5.71529082786340
O           13.31691040185010       -3.65430965940786       -5.83106071809674
C           11.90544690551564       -3.59183512343425       -6.00652135480748
C           11.25884311704132       -4.96555305916982       -5.90869130144274
C            9.73767527625820       -4.91641994506707       -6.03277909500750
C            9.08230952596069       -6.28735444186194       -5.87433253749369
C            7.55738440603512       -6.23254772578706       -5.95636664941983
C            6.89987466307360       -7.59654477593068       -5.74911009821415
C            5.37322850926109       -7.54129835413490       -5.81436204011878
C            4.72591055844830       -8.89863374082342       -5.58911392789469
C           13.32103456970330       -1.18108795402318       -5.93221390447634
C           14.00679423707156       -0.00697586574361       -5.76244635169713
C           17.52487977154226        1.56515746368178       -5.51289197111894
C           18.49166135610984        0.94020670053668       -4.49174602057419
C           17.84674011059206        1.09936008504888       -6.93922869077299
C           17.62042253176836        3.08371895640146       -5.40780852020114
C           18.68171466815339        3.93677324718541       -5.63573964546501
C           18.51509284813338        5.29053706565128       -5.40289456144118
C           17.30446727569052        5.78367746040015       -4.94153417549030
C           16.24140385347732        4.93482535312082       -4.71128406323821
C           16.40017879272599        3.57437680422054       -4.95083705864583
C           13.50742715154519        1.81556662996607       -3.37826131446612
C           12.19461684772575        1.93337317508165       -2.99783697389062
H            1.05240863775633       -1.79133725348134        0.86208099801921
H            1.05325909560102       -0.97908706356896       -0.70109993192370
H            1.17438853627395       -0.03640099710768        0.77582628417915
H            3.30911240248773       -2.01537980596523       -0.21604676795756
H            3.43006453088020       -1.07971556935335        1.24819883338904
H            3.34977325125358        1.04731286926104       -0.10338268664142
H            3.22244026857185        0.11349047528829       -1.56689495902403
H            5.45306858722805       -0.96346152175131       -1.06971349474128
H            5.58339949835373       -0.01701262263580        0.38552482083279
H            5.51002059901292        2.10129818755121       -0.98292509070395
H            5.36505951992187        1.15710876684491       -2.43822426103139
H            7.59261473784740        0.06891078111098       -1.94700966888677
H            7.74420727093322        1.03623602121606       -0.50757035638744
H            7.68724826732168        3.13586237156010       -1.90615341298442
H            7.50167968916081        2.17634303700525       -3.34547190284452
H            9.71581423559776        1.06975226388245       -2.89931802875866
H            9.92088357353590        2.09590725521940       -1.47165772071266
H           11.28222615311013        4.48139319016962       -4.99892565342090
H           13.63027365821030        4.25623623243679       -5.69926745138901
H           17.00533161659514       -1.25741179191153       -4.86877249282181
H           15.78411606846202       -3.34567897127926       -5.19052377635343
H           11.70141404721829       -3.13774816811769       -6.98230705679783
H           11.49626972198446       -2.92801336719579       -5.23686527019232
H           11.54107240453234       -5.42522960648110       -4.95449752826279
H           11.68108610564589       -5.62270420885212       -6.67745468278831
H            9.45842618802206       -4.48044277499199       -6.99984033317908
H            9.33133656399593       -4.22730192103752       -5.28212222688735
H            9.38206409161759       -6.72799953871550       -4.91549704377250
H            9.47049980399348       -6.97417516051652       -6.63643608867566
H            7.25381982666386       -5.81796474784240       -6.92552041318135
H            7.17490231902685       -5.52389956057177       -5.21141935482826
H            7.21145755745639       -8.01144956409380       -4.78249395155797
H            7.27642481945839       -8.30522544269214       -6.49704426968633
H            5.06615713946270       -7.13112656108054       -6.78586827827695
H            5.00476784282998       -6.81938021769428       -5.07302168104606
H            5.05517938759266       -9.62233390607837       -6.33740257355909
H            3.63572444037425       -8.84751421451271       -5.63953311371158
H            4.99082525705078       -9.30478925297763       -4.61081816064458
H           12.29193405497205       -1.15016184457687       -6.24068136658931
H           13.50744847547852        0.92771967006034       -5.94714650717587
H           18.55801931271245       -0.13995236055845       -4.59545815733595
H           18.17527584885825        1.16986801899974       -3.47452623747655
H           19.49734322107721        1.33834287218399       -4.62493461054414
H           17.72771091386022        0.02061259607558       -7.03437683839653
H           18.87138749058128        1.35245992558163       -7.20975149779732
H           17.17946140912125        1.57676334043185       -7.65633109890081
H           19.62190111726756        3.54408543325681       -5.98212593901047
H           19.33655000363097        5.96666387806121       -5.57499514852577
H           17.19250074953591        6.84016656629890       -4.75968193384408
H           15.30200253109688        5.30836711089726       -4.34394493838959
H           14.13527247408005        1.06541656020689       -2.92840640173450
H           11.80541832419514        1.27933688936681       -2.23908792792026
