91
 energy: -15.924809325630 gnorm: 0.000505470051 xtb: 6.6.1 (8d0f1dd)
C            1.11687179062883       -0.02007244222155        0.52139262071879
C            2.60597699406446       -0.31849285635715        0.59575830329377
C            3.17339224468846       -0.82732434210773       -0.72974865961585
C            4.66747294316125       -1.14269874318273       -0.66135061167788
C            5.23332781388156       -1.63195624390765       -1.99382881114430
C            6.72273289866467       -1.96713689671159       -1.92685022716085
C            7.28863337118051       -2.41856210271087       -3.27136803883588
C            8.76775065479795       -2.77094865264796       -3.21135510795385
O            9.27253572100161       -3.13329784496364       -4.49167768407702
C           10.63881870020241       -3.42737455082213       -4.52820041544187
C           11.48212704452556       -3.47293902261700       -3.40565729499076
C           12.80317698025606       -3.78474982777746       -3.53855351708373
C           13.37327777848605       -4.08004361450150       -4.78966786735677
C           14.76247863049583       -4.43185279403129       -4.95639252043469
C           15.31388912625020       -4.54979956673786       -6.21383492898348
C           14.52384542973911       -4.40745191258599       -7.39691311434231
C           15.06604072970645       -4.51750754285596       -8.69359356029170
C           14.28768412124830       -4.40423323316240       -9.80607720143358
C           12.90530392488420       -4.17058708667076       -9.69612238495191
O           12.02694166098303       -4.03881096157900      -10.77375872449561
C           12.63388887296685       -4.08406691786811      -12.06041375895180
C           11.61348059920682       -3.85324859820525      -13.16560354079076
C           12.22224508604230       -3.87453204464904      -14.56579149070918
C           11.18929915235338       -3.61476666935404      -15.66182052517386
C           11.78839334959686       -3.62013070178330      -17.06760142915634
C           10.75236154770500       -3.33770482098330      -18.15557135293666
C           11.34625331660335       -3.33488083886552      -19.56469204454163
C           10.31067205114916       -3.03890783431297      -20.63814116865108
C           12.36482981789691       -4.05572837082408       -8.42407336306098
C           13.13513755640880       -4.16060632387456       -7.26351661670272
C           12.55353925792241       -3.98576587942497       -5.93982123202879
C           11.19951025242962       -3.68097784962999       -5.77002956669860
C           16.81647264261310       -4.84251139999878       -6.09183837643792
C           17.18427163566288       -6.19305420907337       -6.72826729819542
C           17.66070652176816       -3.69380545241130       -6.66548255725462
C           17.01836556588492       -4.92438341991246       -4.58292746704108
C           18.16255762514895       -5.22059265527764       -3.86889789238024
C           18.08671545415839       -5.32738533973355       -2.49359597216368
C           16.87471622667842       -5.15976633739981       -1.84649925421877
C           15.72865894527302       -4.86509694614547       -2.55702881411215
C           15.79501739888017       -4.71694848027986       -3.94133223215671
H            0.72290034176470        0.34624005415609        1.47203772909206
H            0.54831751632235       -0.91225822981834        0.25273581667036
H            0.90320406515564        0.73660389903932       -0.23562211341725
H            2.80465281124386       -1.05778642968816        1.38307663281095
H            3.15719036181554        0.57958708388124        0.90493623319607
H            2.98920642596409       -0.08633804027050       -1.51737441838915
H            2.62274897569140       -1.72146999293611       -1.04695338532592
H            4.85072512671340       -1.89471633856697        0.11585314281052
H            5.21785239042419       -0.25284905655084       -0.33201887248774
H            5.06173424005129       -0.87264464747099       -2.76663866736202
H            4.67300494867109       -2.51241731542090       -2.33142805842384
H            6.89314047996905       -2.74607739568207       -1.17366973994075
H            7.28154320100455       -1.09475983759202       -1.56654321265398
H            7.13788513905727       -1.63504998698035       -4.02271555312291
H            6.72748803132101       -3.28239416625571       -3.64548060264830
H            8.93488221261778       -3.60891206264877       -2.52600091232047
H            9.34926510585908       -1.91738816686845       -2.84615324990783
H           11.08401538533026       -3.25300909636392       -2.43172920472152
H           13.43000886110024       -3.74966093897604       -2.66976453840810
H           16.11939606125673       -4.68877361897707       -8.81239762571652
H           14.73513402905998       -4.49766117281169      -10.77894248472244
H           13.11509251132729       -5.06094344921742      -12.17825024651495
H           13.41589472880623       -3.31791513017309      -12.09691375891928
H           11.10967998148028       -2.89561683623002      -12.99152198649395
H           10.82250810267390       -4.60784937417450      -13.08808573972880
H           12.71448876613665       -4.83894775563187      -14.74091244861208
H           13.02394760042129       -3.12871326868144      -14.63032537123256
H           10.69369649431902       -2.65358384137132      -15.47797324492300
H           10.38954837543211       -4.36290520111783      -15.59910705275578
H           12.27242922823796       -4.58559337058394      -17.25928871228998
H           12.59571765835843       -2.87989120986507      -17.12670966593016
H           10.26710266694862       -2.37359318468022      -17.95943361583033
H            9.94536239085369       -4.07850349259939      -18.09720119261388
H           11.82607951774128       -4.30365447472701      -19.75812918398463
H           12.16133162577604       -2.60037334764875      -19.61306812497762
H            9.50816379517540       -3.77909179013289      -20.62760615496282
H           10.74538936395845       -3.04003472262834      -21.64046696482351
H            9.84847383577385       -2.06209623329984      -20.48223834589447
H           11.31018716161803       -3.87276308671947       -8.36463295437433
H           10.54314168930611       -3.62063319074359       -6.61556875859357
H           17.02776696314834       -6.19458758920647       -7.80455131892880
H           16.57757473287379       -6.99113372734770       -6.30105596063274
H           18.23110243429345       -6.43362391419280       -6.54527705864108
H           17.51259367343813       -3.57775692650755       -7.73715463222021
H           18.72194964989639       -3.86950102885350       -6.49155637871457
H           17.39389981192726       -2.75162802644049       -6.18711868511865
H           19.09362791232518       -5.37485393942927       -4.38622352547199
H           18.97238554330591       -5.55773834279121       -1.92422401420806
H           16.82374274370529       -5.27107816505372       -0.77544952071778
H           14.79066389518579       -4.80532859498835       -2.03970659731358
