51
 energy: -8.529542365087 gnorm: 0.000747935240 xtb: 6.6.1 (8d0f1dd)
C            0.94409758788349        0.17230777904868       -0.08959703251376
C            2.45149097583402       -0.00568278746295       -0.17878209310049
C            3.01174524406592       -0.87598391292614        0.94693532832801
C            4.52776213465050       -1.05372804233880        0.86818984787117
C            5.08687960888544       -1.91644729408089        1.99905788903282
C            6.60311914453537       -2.09041522888724        1.92248238505156
C            7.16316402944382       -2.94734068614260        3.05818228343704
C            8.66769370439967       -3.12164936710104        2.98244498513386
Si           9.37796790722534       -4.15409188248430        4.39111122058712
C            8.75914502613709       -3.53810957279409        6.05072078904495
C            8.76043152768154       -5.91060886439591        4.18084293585904
C           11.24205687607033       -4.09465217593590        4.33443555211743
C           11.90372664827432       -5.26470631150134        4.11166897416538
C           13.30341610037062       -5.30626495113766        4.04664044933043
C           14.03120625971523       -4.16750849127368        4.20360334275729
C           13.38810118453731       -2.92999948133179        4.43297561121698
C           14.12266614139658       -1.73131430315433        4.59002147858302
C           13.48533913819678       -0.54780316077417        4.80617808919764
C           12.08776430877921       -0.50145288915295        4.87799401627429
C           11.35033725346337       -1.63725332205312        4.73194559341390
C           11.97221355003401       -2.88824028046642        4.50238361376561
H            0.55482456857313        0.79602540020394       -0.89773838081980
H            0.65700488578289        0.64078459860515        0.85371609745545
H            0.42939461284347       -0.78903602440490       -0.14015801318756
H            2.94950132081778        0.97292993768795       -0.16232035615737
H            2.72437622315770       -0.44550334000943       -1.14732918518299
H            2.52411220845942       -1.85858660272358        0.93079871880737
H            2.74207286478437       -0.44113882457939        1.91733964494501
H            5.01517732952384       -0.07094518344534        0.87957698074441
H            4.79812715064424       -1.49375310303534       -0.09969125099804
H            4.60168576346006       -2.90041195097074        1.98722567883166
H            4.81483340275752       -1.47716047115883        2.96692871800756
H            7.08823968429669       -1.10629262219174        1.93069116942274
H            6.87602117480871       -2.53405134265766        0.95685128142419
H            6.67629427209770       -3.93093127315624        3.05441702019045
H            6.89251135798490       -2.50140151757057        4.02387443044186
H            9.16946157930150       -2.15304545805187        2.98645239810816
H            8.95731196783730       -3.61611016174863        2.05308211903013
H            7.74375583032687       -3.88785129921781        6.21516753693093
H            8.76136233173105       -2.45353870171276        6.09903704550786
H            9.39255673624847       -3.92436836854886        6.84426148551919
H            7.67692990880156       -5.93470521562863        4.25907271001047
H            9.17624314576432       -6.55043292598243        4.95443242295445
H            9.04612059440475       -6.29948470203288        3.20721160196708
H           11.34228420536881       -6.17418519725596        3.98159061642764
H           13.80222471552785       -6.24546102386783        3.87060322931738
H           15.10629826353621       -4.19537136039461        4.15324929313620
H           15.19720828699109       -1.76833111484586        4.53380258509360
H           14.05597522512007        0.35942603572152        4.92245247602293
H           11.59577627447407        0.44240821068198        5.04930826878643
H           10.27876976302040       -1.58866117134318        4.79094839767424
