136
 energy: -26.531054534499 gnorm: 0.000532645219 xtb: 6.6.1 (8d0f1dd)
C            0.65792681585748        0.65310450141756       -0.62060399033427
C            2.15106359483146        0.37476890262284       -0.68716179589348
C            2.52512330407844       -0.98994518910662       -0.10695616496486
C            4.02482332018382       -1.27261125455864       -0.17281788088176
C            4.40777424246100       -2.64094681554341        0.39098782577308
C            5.90910436574726       -2.90447185318674        0.30522178441336
C            6.32336670327292       -4.29038294740206        0.79931676362052
C            7.82665157866127       -4.51504956842229        0.65216705194062
C            8.28919889590600       -5.88570697107693        1.04405777641338
C            8.33867132595638       -6.90425170263361        0.10472424517644
C            8.77226166537344       -8.16406608063773        0.45258134230719
C            9.16750410424511       -8.44853590790556        1.75782835934831
C            9.62303656634726       -9.80448894856889        2.13346230804218
C           10.36796370734849      -10.58619132618192        1.25000863345533
C           10.77721404859857      -11.85142624032543        1.59630402000516
C           10.47380916802177      -12.38923415348838        2.84979858221281
C           10.90794429275017      -13.73960609245914        3.18242504709083
C           11.19624196391149      -14.21082724059794        4.42301083376709
C           11.19908836096700      -13.34835425222924        5.52466802080248
N           11.25473293399691      -12.62914274633794        6.43695532662974
C           11.63302735363682      -15.59500972830268        4.66299164590428
C           11.95117444392073      -15.99714450287814        5.96208285461108
C           12.43772461715294      -17.25354812782880        6.22332616465257
C           12.64024505907038      -18.16738243971683        5.19014817329998
C           13.20317198993664      -19.51293239664739        5.47359693710982
C           12.33857850662807      -20.58765450570425        5.42563065166348
C           12.73502347193665      -21.86672089943967        5.80408469170797
C           13.99956917013568      -22.08195088995299        6.25777399808473
C           14.93544329089462      -21.02635255571333        6.31900479338099
C           16.23642833344804      -21.26241114552673        6.81442059839467
C           17.15772344254911      -20.26212568992198        6.85675254794164
C           16.83452123612191      -18.99605153441663        6.37809999430434
C           15.58352735568199      -18.70480691409651        5.87295301901401
C           15.38951167498592      -17.36585369891666        5.25665629470847
C           15.33171637416435      -17.22643277269279        3.86995930627185
C           15.13589277273259      -15.99492960373961        3.29547920186336
C           14.98277778430353      -14.84883850177712        4.07768662691305
C           14.70079151315736      -13.55192860450843        3.43684380369439
C           15.07760287268862      -13.41032266085520        2.09870688358035
N           15.37898359449212      -13.28882284839590        0.98228778790821
C           14.03484358087098      -12.57543761290024        4.10448898026959
C           13.66196817044089      -11.25310908642829        3.63339261441073
C           12.80570227921948      -10.47441401726472        4.41724783646171
C           12.45453856294143       -9.20174878583973        4.03986287583319
C           12.93467257912983       -8.64507102616668        2.85474745111550
C           12.56872190843467       -7.26951438005251        2.45291089589115
C           12.40197067035223       -6.26912572597835        3.40709228211534
C           12.07549439824316       -4.98460916004529        3.03429371044385
C           11.90338538065486       -4.64680637293418        1.69955763569207
C           11.55503595272258       -3.22600497085841        1.34610462604029
C           10.91416197923234       -3.02428202681820       -0.03444843768677
C           10.15748734514063       -1.69816241845086       -0.14164845480966
C            9.33725582830457       -1.56249997273853       -1.42560517658660
C            8.40931218745522       -0.34671783759733       -1.40563477102377
C            7.46343385213121       -0.28919063803022       -2.60472425360570
C            6.48738528392056        0.88659240019099       -2.53723485673958
C            5.49954396384787        0.90018532305003       -3.69267071373943
C           12.07539997511315       -5.63898046335781        0.74449581169558
C           12.39515607707278       -6.92818924393436        1.11291911494455
C           13.77427867007625       -9.42484251509546        2.06100014165590
C           14.12629091503152      -10.69674890839859        2.43900276966088
C           15.09329751335714      -14.98370159030852        5.46370013267370
C           15.30283214304919      -16.21405062629309        6.03958625525450
C           14.56762605288185      -19.72527461275508        5.88109901121205
C           12.27285251270019      -17.79267652327192        3.89784582601786
C           11.78590874237373      -16.53339209581076        3.63861844038437
C            9.73076420677240      -11.60193190933644        3.73304852818060
C            9.31290681930961      -10.34186928285017        3.38202723070174
C            9.10878720621626       -7.42196144750771        2.69885214277858
C            8.67513906382938       -6.16278512659626        2.34644207709302
H            0.40303121574238        1.63012898325610       -1.03721812094346
H            0.29799115488900        0.63171509068451        0.40969909713960
H            0.09140398293118       -0.09779722495697       -1.17442874494622
H            2.70631039584744        1.15906369690377       -0.15568248177476
H            2.50125604064452        0.43517320027141       -1.72625564885710
H            1.97784122453305       -1.77841303740307       -0.63778618438182
H            2.18252227075049       -1.05585527864072        0.93286434513675
H            4.57191308945967       -0.48762360823613        0.36341324255614
H            4.36575217508519       -1.19750091710404       -1.21251567512317
H            3.86343747191832       -3.42678611436674       -0.14658143074989
H            4.07450126682502       -2.72239946969895        1.43262019944660
H            6.45064361870510       -2.13600770342325        0.87029056660532
H            6.23913272738295       -2.77748205155479       -0.73289502510435
H            5.77879468433355       -5.06254318505298        0.24278979720786
H            6.02493023125532       -4.42449097166836        1.84582017853473
H            8.36851863594694       -3.76780783528169        1.24253751435365
H            8.11207924857968       -4.33278441497341       -0.38945838713075
H            8.03373905851993       -6.69874966466002       -0.90724067171306
H            8.79298090946497       -8.94757748229088       -0.28484140901580
H           10.63883313997603      -10.17878704266008        0.29147199662681
H           11.36200242271725      -12.43666803149242        0.90736128802321
H           11.03823380081945      -14.40013996097306        2.34510442357675
H           11.83520017177328      -15.29094489167539        6.76564193653267
H           12.69486952452393      -17.54051440896706        7.22844719195796
H           11.32141162008056      -20.41591692293289        5.11672834606295
H           12.03028572248441      -22.68094294133322        5.75870202633044
H           14.30253796400862      -23.06566495047527        6.57331101035091
H           16.49039113439480      -22.24887961349284        7.16290864797198
H           18.14698204075574      -20.45351461641442        7.23939976230234
H           17.58529205495992      -18.22416991715366        6.36829288577047
H           15.42637502864382      -18.10528113232047        3.25567663379678
H           15.07702918243199      -15.90213157281553        2.22498100241463
H           13.69337751144404      -12.81382957958526        5.09575031900075
H           12.38094308319114      -10.90436321831480        5.30855443870857
H           11.77635679407751       -8.63108823236142        4.65011755386457
H           12.54885457210204       -6.50512311372573        4.44671773900853
H           11.95349899673657       -4.22269477810132        3.78534582100868
H           12.44946736867197       -2.59940052647981        1.43868359876988
H           10.86428720958604       -2.85113757860765        2.11094876705861
H           10.22411637794969       -3.85077407139259       -0.23256982729969
H           11.67116908331700       -3.09466553155878       -0.82475020682415
H           10.85581748196999       -0.85771593228431       -0.04908289795338
H            9.48487678340576       -1.60054172384462        0.71942357051717
H            8.73833128440431       -2.46842509650215       -1.57376209772453
H           10.00231276451832       -1.51858427252042       -2.29641544466397
H            9.00270422970226        0.57395751425588       -1.35180389388469
H            7.81805636066244       -0.35644883096622       -0.48179363890507
H            6.89957684216379       -1.22749858206792       -2.67222175354820
H            8.04370696030616       -0.23938803812442       -3.53399632667542
H            7.05330813535071        1.82717694665698       -2.50976180724245
H            5.94758748852469        0.85468847386550       -1.58158532313510
H            6.01510068145998        0.97255966654947       -4.65204777922161
H            4.80465259359911        1.74060614904638       -3.62919627048673
H            4.90554705848854       -0.01541228266240       -3.71515017098882
H           11.95608055416575       -5.39858123272056       -0.29744646435938
H           12.49975779488302       -7.69029896196331        0.36038274273624
H           14.16119592723766       -9.01246520588977        1.14532780278803
H           14.76631166615431      -11.27143361486467        1.79646136474832
H           15.02057194397733      -14.11069811631895        6.08802047798609
H           15.37730453031372      -16.30763915490206        7.10934406829628
H           12.40588673538822      -18.49901386815772        3.09648728689243
H           11.54056986583327      -16.26886903732718        2.62639192207253
H            9.47992259751638      -11.99396420551482        4.70259932841179
H            8.72825592738872       -9.75944449078960        4.07275997313162
H            9.42761045096581       -7.61621018243856        3.70804911530867
H            8.64394949699955       -5.37642873742623        3.08114590944950
