126
 energy: -25.180553665765 gnorm: 0.000720224406 xtb: 6.6.1 (8d0f1dd)
C            0.21467404430044       -1.58979942881412       -0.95072123141001
C            1.71100867234961       -1.36599748392579       -0.80010395472273
C            2.15094443522032        0.02136561916019       -1.26863346448863
C            3.65422984993240        0.25666911570036       -1.12330367279973
C            4.08474517020030        1.64029085327989       -1.60672181597280
C            5.59267360758749        1.87261045086713       -1.51386760222154
C            6.00253100083006        3.24175633696072       -2.05364917355079
C            7.51921485733954        3.45132008904474       -2.11616228287400
C            7.94637569943220        4.63648637031580       -2.93853575716728
C            9.18642728801007        4.63236774873554       -3.56445726972934
C            9.59414259162777        5.69651321278106       -4.33696808285710
C            8.76724215621812        6.79761011338557       -4.50768441671551
N            9.18462657699401        7.91744138635575       -5.30821251769800
C            9.48752850896427        9.21070873544926       -4.85057470746532
C            9.53071276514572        9.76277729272012       -3.53861546522301
C            9.24933016432424        9.02900769629333       -2.37650256134318
C            9.35210442919233        9.60306332614840       -1.14118383518586
C            9.74723784680712       10.93242735052715       -1.02173523730590
C           10.04123864605804       11.66579600671901       -2.13728883109160
C            9.95174760513079       11.10800708765619       -3.42342508326199
N           10.25935671313899       11.90240188979294       -4.50053867066329
C           10.20744899403230       11.38714950466343       -5.71613887339751
C           10.34239108603423       12.32264900812971       -6.84316240356828
C            9.54792023751751       12.21275388837337       -7.98448560485324
C            9.61332498552304       13.15877477322598       -8.97998333089548
C           10.47140206564367       14.24838246339077       -8.87051773801873
C           10.54296087411127       15.21019149028950       -9.88815438966920
N           10.62652379279500       15.99081544069717      -10.74518485025178
C           11.26221849052073       14.36285876807556       -7.73224224128409
C           11.19132655184452       13.42220447807686       -6.73253856353812
C            9.90463157487045       10.00344756405685       -5.92215048575162
C            9.99421522465238        9.13295123790557       -7.06178250643460
C            9.49491897007507        7.88485825328028       -6.69047245917397
C            9.78475490321383        6.95716020475751       -7.74885646157858
C            9.48085839940526        5.57367151547016       -7.95474801160351
C            8.41064408820425        4.89950366035282       -7.20412599539014
C            8.50406058538997        3.53431717307658       -6.94079605496372
C            7.47349698628626        2.86087996197145       -6.32954066596110
C            6.30329044201975        3.52466030830864       -5.97740148279882
C            5.25048699874916        2.83654032211533       -5.35783025384729
N            4.38975950177370        2.27216332261938       -4.81801032126404
C            6.20082874260768        4.88534976933255       -6.24845229919684
C            7.23446799173570        5.56164515254968       -6.85207206213217
N           10.06769367698435        4.87968621320024       -8.91385231709901
C           10.93549053960997        5.51702880307491       -9.76625074369782
C           11.57097127545185        4.75564138299149      -10.76110053303011
C           12.44702457284906        5.32608778584486      -11.64190045857833
C           12.73066658587259        6.68674098466524      -11.56624441939883
C           12.12623235756915        7.45924353421232      -10.61549161081134
C           11.21141648181875        6.90284609956766       -9.70902635616103
C           10.58202892233326        7.64293140530248       -8.66788958792022
N           10.68357027454233        8.99272851342345       -8.29184099217343
C           11.44914265113556       10.01483304568082       -8.95367388540219
C           12.56075195308471       10.57941960140503       -8.34467091223016
C           13.28923161490603       11.55289945155895       -8.99051144850280
C           12.93317504678211       11.98813497139755      -10.26063308065425
C           13.73486457412915       13.06904580405279      -10.93313830418342
C           12.93967352122809       13.91133052003578      -11.93654246542962
C           13.64592058958116       15.20024639780848      -12.35317978412475
C           12.76526458835829       16.08525070260004      -13.23501556737508
C           13.43271427446643       17.40110447997638      -13.63013964892738
C           12.52467612180565       18.29448947573719      -14.47499649652099
C           13.18138171598173       19.61776600588845      -14.86918838546936
C           12.26705334903943       20.50293514534949      -15.70108502256222
C           11.83340290376075       11.40297788846601      -10.87398040651168
C           11.09414363000227       10.43982627894863      -10.22682778631259
C            7.53031397837866        6.81077631652057       -3.87718902598112
C            7.13278669759799        5.75073320052454       -3.09523550629234
H           -0.08789631330229       -2.58449115016415       -0.61609769074034
H           -0.09687199941163       -1.48510587130121       -1.99171989017975
H           -0.35392974611174       -0.86080973814457       -0.37022009030841
H            2.26567636514469       -2.13020058673039       -1.36038725434917
H            2.01132825612073       -1.50757843787205        0.24647837480073
H            1.60224004986176        0.78999247551289       -0.71105172911575
H            1.85711495830143        0.16581343931978       -2.31545925892524
H            4.20192239212105       -0.51334219636075       -1.67991670434706
H            3.95263274245582        0.12021643818534       -0.07693260701729
H            3.55502217347729        2.41410345382804       -1.03828510250213
H            3.76141037857029        1.77859544399943       -2.64592172135145
H            6.11517661981214        1.08756448274146       -2.07371070733148
H            5.93000607920890        1.76074424581157       -0.47659833866231
H            5.53438826861522        4.03005563007026       -1.45256303615722
H            5.58498871859743        3.36533336800857       -3.05832386043712
H            7.98331917975554        2.55254338103256       -2.53875448684143
H            7.92927414410810        3.54197687617632       -1.10412124489933
H            9.82972078200998        3.77715960765983       -3.44687593334386
H           10.55187847677550        5.68694423574580       -4.82737248485000
H            8.96718794604683        7.99737580295426       -2.46289824864473
H            9.13169561785709        9.02699274341412       -0.25739277947464
H            9.82522095406619       11.38193559979698       -0.04539671200584
H           10.35083199389623       12.69266223063515       -2.05091950223273
H            8.87190989493366       11.37994577671311       -8.07125929477722
H            8.99952249772728       13.06649175680355       -9.85966638142816
H           11.92519550703256       15.20633861534198       -7.64160821979984
H           11.78402204759605       13.52786163561213       -5.84037010196864
H            9.39706416632437        3.01226790437307       -7.23778442901948
H            7.55609415929877        1.80718663568424       -6.12488190301703
H            5.29720085421460        5.40334094178516       -5.97593618138376
H            7.14192648281206        6.61149149055960       -7.06920017336388
H           11.35067480989829        3.70371442419795      -10.81227828958210
H           12.92409010898109        4.72109817994084      -12.39540321326474
H           13.43115543715503        7.12816640764560      -12.25616493522857
H           12.36532684492050        8.50290296047334      -10.54559986069196
H           12.83399932560785       10.25012921531726       -7.35744541212940
H           14.14306425663022       11.99439577457901       -8.50565311844847
H           14.60879001012234       12.62496094173795      -11.42269264728912
H           14.13992719497348       13.73069732097841      -10.15857319441234
H           11.96933136399534       14.16573234447909      -11.49731699518627
H           12.70108536664668       13.31727944369707      -12.82653612447089
H           14.58402646056983       14.96501062351600      -12.86975308614062
H           13.94157292361065       15.76089563565938      -11.45817426162592
H           11.82572083372904       16.29750321567512      -12.70985651510155
H           12.46982617529852       15.53348338500139      -14.13539518310962
H           14.36255152272961       17.19608119882312      -14.17404542777757
H           13.74239472011089       17.94114731575955      -12.72733832428540
H           11.59523807673041       18.49395624928168      -13.92794269496421
H           12.21258483133722       17.75460256590492      -15.37711383396865
H           14.11055955208348       19.41260215999417      -15.41697401904408
H           13.49859040620582       20.14896549983328      -13.96213814308767
H           11.96805838569950       20.00426214065142      -16.62475284676242
H           12.74641031733408       21.44491478867853      -15.97644102831983
H           11.35262258954487       20.74682564996312      -15.15739126577654
H           11.54701627104838       11.71400365402216      -11.86311273791444
H           10.23203942797800       10.00010922946183      -10.69755819920619
H            6.89018334485440        7.66539908407567       -4.01130989295546
H            6.17333978132249        5.78198832131813       -2.60970362084600
