102
 energy: -19.411937614184 gnorm: 0.000875479517 xtb: 6.6.1 (8d0f1dd)
C            1.54240335073985        0.46940812933292        1.14383550296314
C            2.93827572799510        0.82240373715680        0.65549675169226
C            3.47265619247396       -0.17114403348246       -0.37681751733848
C            4.87480493668617        0.17801956350282       -0.87533442597462
C            5.40117809751572       -0.81237258749632       -1.91336643596717
C            6.79826618600267       -0.46116592213541       -2.42422883982096
C            7.30508018504164       -1.44107700870343       -3.48093124093244
C            8.68982418444531       -1.08530096612022       -4.02325739980904
C            9.14441339445271       -2.03553000358307       -5.09068457777175
C            9.96420043919785       -3.11359148772871       -4.78504796071844
C           10.31672861513557       -4.02564448903276       -5.75463500786077
C            9.85558114576935       -3.88216674144517       -7.05646791301532
N           10.15358104663175       -4.86875273809979       -8.05814024663328
C           11.38535708410096       -5.30079578812378       -8.57829489363407
C           12.71740458769811       -4.87887458124618       -8.36788543558217
C           13.09325903900554       -3.82245829208032       -7.52725205903793
C           14.41140351597965       -3.48513481895103       -7.39321764089097
C           15.38631636695986       -4.19100830410818       -8.09553576989339
C           15.03478133962863       -5.21980422135121       -8.92689149609010
C           13.69152603978297       -5.58979050135346       -9.09045334123611
N           13.37463465441484       -6.62219759761080       -9.94679842155035
N           12.16980249966235       -6.97986926589588      -10.15483750190662
C           11.17633883474232       -6.33327786375103       -9.49155477961465
C            9.76587726973641       -6.55370045526566       -9.54717640596331
C            9.16204682115085       -5.65488036513060       -8.68043236079787
C            7.75264983004474       -5.86970271161516       -8.72765482268142
N            6.76917278022613       -5.21527732811231       -8.05775419652687
N            5.56230869569721       -5.57434182057327       -8.24708943024818
C            5.23792106251846       -6.62786383686943       -9.07383231168493
C            3.89475177175137       -7.01529542227176       -9.19161749148281
C            3.53274604391594       -8.07835159454267       -9.97337312318916
C            4.49859558806242       -8.80401866472429      -10.66733955711099
C            5.81581717172487       -8.44802820646356      -10.57997363550306
C            6.20300896603165       -7.35053575093099       -9.79831613768460
C            7.53747240340460       -6.91153465677336       -9.62830645374270
N            8.76660414951712       -7.33354252079455      -10.16960384670802
C            9.03210776521340       -8.25197616099310      -11.24078964544915
C           10.00749109001359       -9.23000468486879      -11.10336706763470
C           10.27409535659601      -10.10147398267932      -12.13560373705065
C            9.57240496502800      -10.02061852561839      -13.33085282077913
C            9.86452022698350      -10.95900671801983      -14.46417823381659
C           10.70717678084009      -10.31812282405915      -15.56739755475527
C           10.96440242400041      -11.25914201596140      -16.74362680399740
C           11.76240805199077      -10.60483584328903      -17.87095390087377
C           11.98867082540572      -11.53806705339293      -19.06018830674773
C           12.76052350759568      -10.87690162233728      -20.20186864966903
C           12.97119748454401      -11.80592502262707      -21.39831118469313
C           13.73170678396947      -11.14030193721833      -22.53420623847997
C            8.61641456399475       -9.02531240673079      -13.47502898785428
C            8.35354338780262       -8.14797528087705      -12.44754510282451
C            9.02943724502545       -2.80958652221884       -7.36193056465316
C            8.68020090566240       -1.89875538528931       -6.39129676330402
H            1.17079238088192        1.18638954976171        1.87937821698970
H            1.52510794214212       -0.51770063293913        1.60945109301733
H            0.82904864823397        0.44734347383222        0.31790320999284
H            3.63417441414461        0.87363545948002        1.50336322283809
H            2.94349534447708        1.83190575506362        0.22338513469853
H            2.78236119104453       -0.22424459772823       -1.22754919480440
H            3.47467362688970       -1.18129903521826        0.05049523821655
H            5.56761821414506        0.22593230029806       -0.02645607637181
H            4.87345462739231        1.18957423088850       -1.29928733996791
H            4.70362194651022       -0.86344164929487       -2.75831976126189
H            5.40731982101708       -1.82375263079183       -1.48898866800518
H            7.50243589490074       -0.42530949640397       -1.58416653931468
H            6.79429343666299        0.55502482361625       -2.83693102880443
H            6.59021796166104       -1.48756802934215       -4.31144408784561
H            7.32342760426832       -2.45685535403809       -3.06777662860014
H            9.42016624888101       -1.07028509487709       -3.20626194117421
H            8.68275323423825       -0.06554863625593       -4.42505594526012
H           10.31042101937561       -3.24052807804529       -3.77351843582616
H           10.93457294720604       -4.87337752882665       -5.51408828980756
H           12.33369674293606       -3.27837782716068       -6.99660416096947
H           14.69760825946141       -2.67327393391025       -6.74479660210632
H           16.42395050081424       -3.92165898314627       -7.98448360670652
H           15.78458131239237       -5.76370354773822       -9.47452427847447
H            3.15295539217209       -6.46025959595462       -8.64421583752746
H            2.49585033166536       -8.36308672180099      -10.04639980164836
H            4.20573777389811       -9.64866462007417      -11.26925222856998
H            6.56682368597279       -9.01868226352763      -11.09430249403426
H           10.55787451748365       -9.28532308550354      -10.18022001692939
H           11.03591602101960      -10.85366770545612      -12.02204648949135
H            8.91814027442020      -11.32081051589484      -14.88265401186181
H           10.37039328042041      -11.85271385519328      -14.08126683082952
H           11.66053519305631       -9.97319100931186      -15.14929362199462
H           10.20935579975716       -9.40909828607322      -15.92588686455884
H           10.00740164672941      -11.62353085484810      -17.13670485579381
H           11.48752849618368      -12.15665931652827      -16.39183669762973
H           12.72774732682600      -10.25445860363414      -17.48589054859812
H           11.24489702211304       -9.69868490316206      -18.20886509229483
H           11.02220415000829      -11.89975633679917      -19.43195260485596
H           12.52004393712854      -12.43795486717114      -18.72729057077043
H           13.73117604143124      -10.52232770514238      -19.83428464270881
H           12.23244344067821       -9.97234596500517      -20.52749507442151
H           11.99618589263702      -12.16362009889987      -21.75522312262184
H           13.50007713158441      -12.70949768339769      -21.06708287904912
H           13.20258782056521      -10.25839104851287      -22.90006547962605
H           13.87447021043617      -11.81320888685904      -23.38276412897756
H           14.71949854964835      -10.80981152969633      -22.20775455494456
H            8.08209118639816       -8.94196163578216      -14.40609365665327
H            7.62521497784002       -7.36471562624605      -12.56757393317791
H            8.65132956220234       -2.71730207792823       -8.36525792593332
H            8.02588563725789       -1.07815063685813       -6.63162357882243
