80
 energy: -14.546916973832 gnorm: 0.000781236345 xtb: 6.6.1 (8d0f1dd)
C            1.17709421982967       -0.02889221991049       -0.72742969891333
C            2.31132315528752        0.96513359261840       -0.53538645433061
C            3.31143067282210        0.95313775260000       -1.69215867260985
C            4.45261614571586        1.95376306706453       -1.51009051604701
C            5.45060474265784        1.93395867572587       -2.66687165673661
C            6.58887010370398        2.93936455013989       -2.49778245375508
C            7.58070428702451        2.90469384664705       -3.65744437222725
C            8.71095102706140        3.91007546068610       -3.52252696493107
N            9.60713839121842        3.84846435916225       -4.66353811938741
C           10.96863619178674        3.53866122230316       -4.56576691907746
O           11.59944996888815        3.33374596472243       -3.54944345083352
C           11.46492323176773        3.49559885852580       -5.94929879573809
C           12.70883902772857        3.23599165108913       -6.43637380300174
C           12.91437513563708        3.22868769966543       -7.84309668574431
C           14.16410865584830        2.95220964348104       -8.39123185913221
C           14.36630087728727        2.92498595465920       -9.76861915643946
C           15.64118539928576        2.62848075288653      -10.32334626397819
C           15.78493246520153        2.59922719086429      -11.67625647439659
C           16.96123983870790        2.30431333548825      -12.50711665096467
O           18.08051465490066        2.02753727243613      -12.12837198332390
N           16.52307956387189        2.40241704063357      -13.83297973058047
C           17.36654064460773        2.09026698172036      -14.97466897981184
C           17.20169074179869        3.09763702426226      -16.09967117631836
C           18.01975609800313        2.75347677498440      -17.34174528323928
C           17.80894976584763        3.74217602460699      -18.48735097296909
C           18.59952578351860        3.37760560358694      -19.74329645429480
C           18.37585292867742        4.35529688935599      -20.89655402444457
C           19.15530485070231        3.98164418481457      -22.15817836640323
C           18.92543152158830        4.95470232200277      -23.30328398548673
C           15.16383964903248        2.72735153600105      -13.92656908432537
O           14.51100446547474        2.87069670171516      -14.93959192157471
C           14.69167024368153        2.85861395506657      -12.54046479616327
C           13.45590387284004        3.15140431111768      -12.05225609507236
C           13.25974161808126        3.19193754422911      -10.64504542304845
C           12.01164397895896        3.47461727607739      -10.09706546458392
C           11.80871515604728        3.49782698168665       -8.72003572912009
C           10.52746330002966        3.76826361747920       -8.16746434927550
C           10.37467955586506        3.76302135046410       -6.81553050745853
C            9.17727442220948        3.97433589993053       -5.98974962531816
O            8.04488182747338        4.18773929419016       -6.37083864334747
H            0.47087488041250       -0.01140706878272        0.10521821061602
H            1.55648104248181       -1.04845738732334       -0.81502679490802
H            0.61534055252671        0.18457050534041       -1.63846988177547
H            2.84090430888449        0.75721015615647        0.40344393577553
H            1.90839560897415        1.97920013545209       -0.41545006754331
H            2.78770585521326        1.16020132394412       -2.63319162782153
H            3.72298506059170       -0.05627993175875       -1.81211319283317
H            4.97604124036089        1.74918014194855       -0.56843118817073
H            4.04208461051369        2.96409872970333       -1.39516850920743
H            4.92514865653644        2.13044110946634       -3.60917392061408
H            5.86545912458773        0.92486534299277       -2.77733923128162
H            7.11606522582761        2.74782535105970       -1.55561952953696
H            6.17661751586811        3.95033366995739       -2.39597536276208
H            7.05672250468734        3.08987273159757       -4.60345120450650
H            8.00448995605560        1.89873887580282       -3.75910223132406
H            9.29884180255583        3.72646388276530       -2.61740381652605
H            8.32138715669890        4.92994770187467       -3.45155800347065
H           13.51746908095539        3.03068341225026       -5.75920021782334
H           14.99098804591760        2.74780753261164       -7.73558437167194
H           16.48369970964968        2.42073655793532       -9.68966948952077
H           17.11011769339113        1.08257230348941      -15.31456239807159
H           18.40429283295796        2.05257432454825      -14.62810242380037
H           17.46737258041865        4.09668380341212      -15.73555271016882
H           16.13829047609119        3.16398747652251      -16.36017473196711
H           17.76365898454498        1.74211222801944      -17.67908753645977
H           19.08397913225353        2.70716806341670      -17.08222265116575
H           18.08147941996576        4.75192400337427      -18.15839269879696
H           16.74111536652024        3.79984924881693      -18.72965276131788
H           18.33119909694717        2.36401976672477      -20.06423085426542
H           19.66839823650995        3.32721946234893      -19.50416861634743
H           18.65124173179143        5.36819645951020      -20.57946370459199
H           17.30567174417842        4.41094727873521      -21.12890277135504
H           18.87943140078051        2.96478970742064      -22.46618935776848
H           20.22520664484533        3.92500479136604      -21.91955042888634
H           17.87044099990316        4.99796749343309      -23.57860068380714
H           19.48665145581940        4.67588864304810      -24.19752031215086
H           19.22801519192434        5.96635806780968      -23.02813009062713
H           12.64185704580446        3.33952289033523      -12.72779960723959
H           11.18342637937755        3.67231122965512      -10.75306123522521
H            9.68379346606899        3.96636004027185       -8.80267636672145
