116
 energy: -23.110505138445 gnorm: 0.000597231588 xtb: 6.6.1 (8d0f1dd)
C            1.57319744133233        1.77396282303500        0.15468416147218
C            3.03991919253145        1.37806134817196        0.09428367953492
C            3.28613744662871       -0.05359197416778        0.57161419608446
C            4.75781922862423       -0.46193429745826        0.51080893072293
C            4.99713709710331       -1.89412554175400        0.98633670339372
C            6.46512004707841       -2.31294499564181        0.91893955493798
C            6.69045439646394       -3.75056518152758        1.38286311701356
C            8.13922336607433       -4.19337087535240        1.29827652738899
N            8.27040319224241       -5.59555970019361        1.71584020373726
N            8.83933750302159       -5.94957385658063        2.87025336145160
N            8.66614969216073       -7.20013186306928        2.95623453862283
C            7.97405025060274       -7.60339194969191        1.84541665729422
C            7.54777669745598       -8.97388407761321        1.58914794254827
C            6.83531693103861       -9.28283057676044        0.43450516558016
C            6.41317558370423      -10.56865108898519        0.19607738904207
C            6.68906457349636      -11.58837479605826        1.10368966135245
C            6.23451786557148      -12.89443242085943        0.85040189990513
C            5.78055688366163      -13.99342490524848        0.56593281404740
C            5.17379072605676      -15.18637383175924        0.14891016656038
C            5.64160733252198      -16.41534309971541        0.55732785466980
C            5.04048196615454      -17.59031888954197        0.12555690606527
C            3.95745226540953      -17.56382363845342       -0.72452341273566
C            3.35644557985058      -18.74434052187640       -1.18329793897658
C            2.78281597195149      -19.70831408355449       -1.66962834046430
C            2.09725497195967      -20.75656042218172       -2.30830924863924
C            2.09878333859483      -22.04857653205537       -1.78839825650664
C            1.43415440006181      -23.06510216096459       -2.43329380130310
C            0.74618463251477      -22.82212575822761       -3.61889508176393
C            0.05614558044369      -23.89993062931962       -4.31749677419085
N            0.02699834149593      -25.20243705791761       -3.89555772262061
N           -0.63063035249827      -25.86929173668644       -4.74633978824605
N           -1.00188756810324      -24.98450961187680       -5.67418292183333
C           -1.71728840834969      -25.37801023478941       -6.89605499285250
C           -0.92837269150316      -24.98078365862557       -8.12997185485683
C           -1.62260635670062      -25.34976858478487       -9.43965694490757
C           -0.83046706892243      -24.91513074612391      -10.67192724677785
C           -1.51390001304516      -25.28559464072825      -11.98740054104826
C           -0.72487242620534      -24.83224275354647      -13.21553403123585
C           -1.39913611876539      -25.20845628542945      -14.53530278429925
C           -0.61324765387799      -24.74280556923673      -15.75073004886281
N           -0.59577858245769      -23.75548647414062       -5.45913977371452
C            0.73978948411471      -21.53067850760304       -4.13699421330599
C            1.40432452970707      -20.51520141388136       -3.49210010540817
C            3.43869009445838      -16.31283885047687       -1.16765597878355
N            2.38233449254856      -16.30707955571645       -1.99797531753179
C            1.95383154351235      -15.11346531235909       -2.36494526353510
C            0.80909683135564      -15.04217731272401       -3.25734574922397
C            0.20255970160819      -16.22477709581064       -3.68304814923791
C           -0.87979668055392      -16.20288976745044       -4.52336882034423
C           -1.38531678553461      -14.98994880311912       -4.95994743852447
C           -0.80619843375083      -13.81243948258918       -4.55424037323478
C            0.30067591060196      -13.80368897074280       -3.69744906422744
C            0.93573526004354      -12.56751928353749       -3.24643015067195
C            0.49107255323638      -11.30251751565615       -3.64815484255260
C            1.10419837076227      -10.15637370299526       -3.20435067287592
C            2.18439483127033      -10.23226684337900       -2.34131167367883
C            2.64269593980749      -11.45751233473301       -1.93282524736617
C            2.03902668278496      -12.63653932193720       -2.37234594957962
C            2.56545691272519      -13.91385687242642       -1.92148950186230
N            3.60733729876985      -13.90537245891605       -1.11081124379133
C            4.05158661880471      -15.11370868717637       -0.72630442891054
C            7.40556664465812      -11.27855095372190        2.25713376708927
C            7.82836268427964       -9.99200800001267        2.49617350173202
N            7.71048952834473       -6.57901114224457        1.05168354575477
H            1.40995695191801        2.79801365332514       -0.18792237964897
H            1.18697547041646        1.70288594010105        1.17297775245847
H            0.96164927623438        1.11812625456548       -0.46746722018430
H            3.64345106677876        2.06972687447237        0.69666890726668
H            3.41944165906416        1.48876635595186       -0.93004092470753
H            2.68658156730311       -0.74920326271966       -0.02794195887942
H            2.91442666743158       -0.16869968926416        1.59695689345112
H            5.35858828021503        0.23139709660868        1.11160092227672
H            5.12990787108615       -0.34734177192685       -0.51440810909743
H            4.39076873600247       -2.58541386963804        0.38867738567026
H            4.62889512166941       -2.00783140297563        2.01304047765992
H            7.07383301045163       -1.62984524228959        1.52322451807738
H            6.83526259868368       -2.19521598485710       -0.10651777896153
H            6.07233978406710       -4.43351609702257        0.78783724951443
H            6.33337657036057       -3.87156577307140        2.41250509728682
H            8.77929673872762       -3.57739167613333        1.93391982080105
H            8.51862553171967       -4.10233581548435        0.27806695722430
H            6.61786584206124       -8.49475459393381       -0.26529308442201
H            5.85959651101083      -10.80332607229725       -0.69680808730493
H            6.49047260120403      -16.45523778262980        1.21806880250022
H            5.42346279356393      -18.54250165737768        0.45024782681345
H            2.63237648714270      -22.24185285409399       -0.87360390659887
H            1.43971306781490      -24.06412851735182       -2.03339480326933
H           -2.70006240658982      -24.90141892302365       -6.88780076053098
H           -1.88592278505566      -26.45689657008494       -6.86748965014973
H            0.06471774744688      -25.44391910435768       -8.09035910040126
H           -0.73736759720286      -23.90136032574893       -8.10147108969471
H           -2.62207956351500      -24.89944940281104       -9.46607223967813
H           -1.79553443986149      -26.43205203825783       -9.47336652442075
H            0.17190240441195      -25.35887681215765      -10.64031858571108
H           -0.66297968215802      -23.83186887441408      -10.63705487163782
H           -2.52038365082694      -24.85102644975933      -12.01491951989530
H           -1.67037535871737      -26.37020838982479      -12.02884189176439
H            0.28440576511433      -25.26001281579022      -13.18310577904449
H           -0.57484180370172      -23.74659150025699      -13.17564840834241
H           -2.41310357823562      -24.78793264917362      -14.55702881998205
H           -1.54258479624835      -26.29637893375418      -14.57172535829393
H           -0.49347042066697      -23.65802912087993      -15.75111048809309
H           -1.10284085191662      -25.01960710866603      -16.68686281764369
H            0.38808723197211      -25.17665857848644      -15.76318072555667
H            0.20923845097772      -21.34400688036502       -5.05442552483105
H            1.40229651911405      -19.51853255776327       -3.89879205556325
H            0.60391568084320      -17.15931264922645       -3.33197175703966
H           -1.33667702402913      -17.12558108446654       -4.84175016147854
H           -2.23762350952466      -14.97160319914007       -5.61938355453006
H           -1.21769677323216      -12.88340688881336       -4.90401991416526
H           -0.34521539879822      -11.21860694127252       -4.31774326068547
H            0.74400230869618       -9.19335790157798       -3.52756621138112
H            2.66267958230396       -9.33162952147648       -1.99263536923265
H            3.48014727306176      -11.53249458771901       -1.26142543533496
H            7.61994587567143      -12.06184206157591        2.96384403116751
H            8.37640731175628       -9.75219919233521        3.39067493301281
