100
 energy: -18.362359068967 gnorm: 0.000596815906 xtb: 6.6.1 (8d0f1dd)
C            1.85822117797504        1.27623977499495        0.07778132042972
C            3.13223579886313        1.10294242641200        0.88881614614562
C            3.33430736191692       -0.33780183598189        1.35341288583101
C            4.66419675398581       -0.56640657519789        2.07427335739928
C            4.92910409586288       -2.05024397342665        2.32695163646984
C            6.35602293746579       -2.36141071532132        2.77526005293077
C            6.71234828516776       -3.84939291254213        2.66339434132026
N            8.15315702925636       -4.06112065475714        2.45637271706293
C            8.75708581182766       -4.69009232017010        1.39504758480348
C            8.17733043411799       -5.39184990083665        0.32549182530898
C            6.99279908933646       -5.11517173661477       -0.36848368288655
C            6.16840330169736       -5.97650166843851       -1.21737854544918
O            6.18150481134944       -7.15724348671952       -1.52342316318959
C            5.28756589635333       -4.84335150112788       -1.49977791187729
C            4.16829856501090       -4.68485746894628       -2.34060331071704
C            3.08879479529135       -3.83073458097122       -2.07980775806065
N            2.58053619712403       -3.54156520537832       -0.84261708286692
C            2.97894357136936       -4.23514683320024        0.38971789349691
C            2.57327219890174       -5.70073963556386        0.39620212190445
C            3.26516780514510       -6.48750232607747        1.50811559041258
C            2.96680845857012       -7.98415775262351        1.46020147950788
C            3.70902076131714       -8.76954785346053        2.54066237658537
C            3.42513912891786      -10.27096612159941        2.49295963544133
C            4.17154475644431      -11.04464613753350        3.56783150494725
C            1.41139156774129       -2.73986926242487       -0.92122541444534
C            0.59721311674749       -2.22653472295572        0.07999176772258
C           -0.48594513554184       -1.45147995943867       -0.27664776240512
C           -0.76222279217028       -1.18973073761571       -1.61004375655841
C            0.03996214698077       -1.70721615077168       -2.61202819453013
C            1.12434132495983       -2.48380786898129       -2.26298519847484
C            2.16193918004396       -3.19799154980146       -3.12445110787665
C            1.49675015580483       -4.27396673781496       -3.99129955813750
C            2.94071459089153       -2.19319332192979       -3.98210179064966
C            6.15918971602834       -3.98297427565419       -0.71859513167247
C            6.31473688647137       -2.59541476287174       -0.62978992773230
C            7.47954204494035       -2.04852096513367       -0.12830469776343
N            8.46020664572452       -1.58561201457766        0.30439579644483
C            5.37156510209081       -1.72108812041745       -1.13333459857150
N            4.57288149619147       -0.96873877831388       -1.53166303668480
C           10.27180255490825       -4.64999309363756        1.64491884678904
C           10.87429926178154       -6.06023963645266        1.69695916878951
C           10.94358000357134       -3.79350323272529        0.56329237663497
C           10.38130740205985       -3.97150892870425        3.00241565916608
C           11.48347890816192       -3.68461098261984        3.77989064521631
C           11.29407367228445       -3.08971744846051        5.01445955933151
C           10.01677700784562       -2.79780793704631        5.46694421879346
C            8.91163574360816       -3.08238824160674        4.69281815276702
C            9.09555228369365       -3.65923806870304        3.44208070605517
H            1.72140453683205        2.30603636499373       -0.25860298330936
H            0.97821337499565        0.99968294422510        0.66086104310206
H            1.87025613109006        0.63964551984424       -0.80909574715328
H            3.13067127188436        1.77271480956803        1.75849948090129
H            3.99956040621656        1.41017682202561        0.28935941801612
H            3.28280703915457       -0.99759709614060        0.47828331005378
H            2.50161532752438       -0.64846823805198        1.99537678737388
H            4.69735515456015       -0.00355474240982        3.01419636640409
H            5.47635799324082       -0.15566122709225        1.46191392038855
H            4.74254544572555       -2.58178805629548        1.39104935277666
H            4.20310647231368       -2.45830777012238        3.04013494662814
H            6.51964188587180       -1.98617024413085        3.79088439241037
H            7.06197492012722       -1.79461980428385        2.15828236777652
H            6.18587903897570       -4.30336853761105        1.82146002698974
H            6.39132827463449       -4.40509364482205        3.54910265658680
H            8.71245166301712       -6.26024785906708       -0.02713015950602
H            4.12259692435485       -5.30459890588688       -3.22310471635106
H            2.57419507646172       -3.71085322382688        1.25860935693240
H            4.06341105923128       -4.16660646675018        0.47024327415390
H            2.82565783136679       -6.14748562847130       -0.57252865885547
H            1.48391687955595       -5.79092009413537        0.47721593323494
H            2.98074785713397       -6.07896831526103        2.48517099732270
H            4.34933193481463       -6.33474752279650        1.43953460001464
H            3.23408813037940       -8.37849912898501        0.47239784821857
H            1.88710800516215       -8.15041932407707        1.55345593718866
H            3.44570206328731       -8.37525554651563        3.52954141512098
H            4.78768612106679       -8.59654886001225        2.44289961414769
H            3.68655302163562      -10.65716370167430        1.49894193500771
H            2.34416665406617      -10.43871327918619        2.58753594731441
H            5.25089109854128      -10.91834949322678        3.46668679404603
H            3.96099906417673      -12.11546035994659        3.52432539969965
H            3.89959566251802      -10.69678591147618        4.56590626131389
H            0.81347640924635       -2.43191631234737        1.11272284473978
H           -1.12463756971332       -1.04368962531704        0.48966499012498
H           -1.61197194221910       -0.58004620843198       -1.86960200279702
H           -0.17043623448232       -1.51387091889657       -3.64926348563613
H            0.97123522099597       -4.99607478635443       -3.36738075800854
H            2.23534199225940       -4.81203061588930       -4.58397821353423
H            0.77471302965980       -3.82931958422922       -4.67511539317700
H            3.40289179957141       -1.43615246124487       -3.34970357685990
H            2.28352823065502       -1.69054791905708       -4.69041330947090
H            3.73157633330193       -2.69102597301173       -4.54169559808905
H           10.79924095755093       -6.55810956485139        0.73135439670019
H           10.35637457567972       -6.67043635908530        2.43598603736015
H           11.92794978781693       -6.02065802357738        1.97057974928727
H           10.82325354823426       -4.24558271834122       -0.42039612235828
H           12.00837795142773       -3.67670200894635        0.76015149091142
H           10.48983673111672       -2.80272417923182        0.53333914246219
H           12.46987973093512       -3.92600477707138        3.42453647608008
H           12.14648918810781       -2.85895984050028        5.63196880331655
H            9.88582312561055       -2.34669567366483        6.43692762178172
H            7.92070879565385       -2.88790013521752        5.05965208177324
