92
 energy: -17.077436416542 gnorm: 0.000968606977 xtb: 6.6.1 (8d0f1dd)
C            1.20450483519765       -0.74221346100779        0.68085689487257
C            2.64138385894233       -0.31519884384354        0.42997805272757
C            3.16539139252502       -0.77839244390884       -0.92898268307876
C            4.59194322074888       -0.30938684256489       -1.21354899856818
C            5.12702598782347       -0.83175905459293       -2.54488175612821
C            6.58876409168533       -0.46610452672547       -2.80009328657245
C            7.20708957048047       -1.25445805345834       -3.95981760089058
N            8.65633611178853       -1.47278304347531       -3.77269869133867
C            9.15528661718180       -2.10746654437243       -2.67348396606340
C            8.41801808061244       -2.76081097870211       -1.65455634759594
C            7.24092565666945       -3.48103349383812       -1.81221124213005
C            6.20211065819559       -3.80986614712482       -0.83947162494393
O            5.96218201017572       -3.49066525178545        0.31442877430821
C            5.50029845678813       -4.60398140396106       -1.84215627830143
C            4.24368651367935       -5.22854184388916       -1.61077751992092
C            3.08989981266979       -5.33022172498218       -2.37581833380629
N            1.87901678063031       -5.67180236268806       -1.79802674119104
C            1.71340283150479       -6.02218573989960       -0.37934665491802
C            1.74083644826733       -4.78227470543084        0.50691017389405
C            1.94769446055489       -5.09516189036900        1.98749266863808
C            2.15435144381487       -3.83730857991502        2.83048196811547
C            2.42183268901484       -4.13819776052064        4.30409512902983
C            2.66870949505449       -2.87772895418214        5.13381278437464
C            2.92274959544525       -3.17919137044517        6.60187302102647
C            0.76974936897699       -5.30531039833625       -2.59797863505147
C           -0.59335755337162       -5.35686893623491       -2.33400022446131
C           -1.47102251872606       -4.86801622218748       -3.27794752530426
C           -1.00466347416359       -4.33068910093727       -4.46828238318528
C            0.35275287008467       -4.27150573703623       -4.73212134388617
C            1.23674396687992       -4.75434521661210       -3.79033610079838
C            2.76264905849196       -4.84211405853098       -3.80073521423878
C            3.17053275566627       -5.87788696407407       -4.85254552892449
C            3.37796911930529       -3.47321469061626       -4.09845247612507
C            6.55874895678663       -4.32000702054981       -2.79538373993902
C            6.98271910502814       -4.89003714356002       -4.00337409834857
C            8.10092619443318       -4.43886427397054       -4.67747855632987
N            9.03815295837515       -4.06857635574566       -5.26692062737504
C            6.42077272553428       -6.05885435468622       -4.47582401124639
N            5.95335756764433       -7.05739043693488       -4.85957312576685
S           10.88800923157668       -1.90614621153918       -2.62610176437852
C           10.91413905123011       -1.05292768645084       -4.15670856859662
C           12.00113346760627       -0.56820682737089       -4.86508503274486
C           11.78885956385191        0.07559559240762       -6.06307722950460
C           10.49887357580075        0.23754112642414       -6.55754587759336
C            9.41327479734573       -0.23839074254486       -5.86110587350151
C            9.61484876656444       -0.89228690001800       -4.64209680242114
H            0.84809738499568       -0.42904821668401        1.66450648963457
H            1.10038310691865       -1.82612447598399        0.62302515266782
H            0.53025619997545       -0.31633541883042       -0.06414158616558
H            3.29648796455864       -0.70355280426018        1.22091421707375
H            2.72818051964128        0.77695194767190        0.49935493751832
H            2.49650095555694       -0.42739948109924       -1.72380423286054
H            3.12248488356117       -1.87298038546316       -0.98166630909904
H            5.24992164821658       -0.64270498977435       -0.40152712132280
H            4.64000362129115        0.78561924483757       -1.19465759277830
H            4.49951086822418       -0.48455472016325       -3.37410031287287
H            5.03242908892324       -1.92272232448636       -2.54677805364066
H            7.16365947328293       -0.66860048136618       -1.88953708854419
H            6.69945161328973        0.61286633390608       -2.96050498187079
H            7.01443146883590       -0.76260063375572       -4.91541270805940
H            6.74216967966546       -2.23841930002117       -4.04547148138889
H            8.77497158546567       -2.63831376837378       -0.64292066230137
H            4.10229627953378       -5.47152667549851       -0.57047672910979
H            2.50952223277656       -6.71937370737491       -0.10382367145232
H            0.78266419078590       -6.58037760010846       -0.24815505014880
H            0.82068438082468       -4.20399169181321        0.36392138167961
H            2.54240480993667       -4.11656684981398        0.16702057502087
H            2.81752803701518       -5.75309462281830        2.10246950276289
H            1.09815204513085       -5.67258403813630        2.37081209162210
H            1.27921480553226       -3.18336366326895        2.73993736468060
H            2.98989872852574       -3.25752101196403        2.41969901219268
H            3.28452514066017       -4.80960116821756        4.39126690619021
H            1.57947630205648       -4.69985003183075        4.72530582419305
H            1.81073422035773       -2.20072850165855        5.02948883107590
H            3.51784818823160       -2.32634101489300        4.70894298048940
H            2.07126689815088       -3.69175677839996        7.05272827275306
H            3.10412109354565       -2.27151934559529        7.18142298790718
H            3.79139664075664       -3.82795044538437        6.72655101826986
H           -0.94939129466383       -5.76891208840454       -1.40704518938044
H           -2.53135098392583       -4.90289337065529       -3.08854018829439
H           -1.70602872531640       -3.95703644684309       -5.19598248054024
H            0.72161507768446       -3.86067533783706       -5.65547817386305
H            2.80945152886484       -6.86851518491653       -4.57901709663907
H            4.24766771770837       -5.92659692999016       -4.95217117946121
H            2.75930630147582       -5.62345342087734       -5.82867243177268
H            4.46462963275310       -3.52669835876626       -4.09043284181656
H            3.05666368805549       -2.74454141600901       -3.35622952102428
H            3.06970879581422       -3.11294271185630       -5.07906589991557
H           12.99405956418436       -0.70632750793892       -4.47341782699184
H           12.62794230532755        0.45137819788796       -6.62495746076800
H           10.35026314576095        0.73586113769284       -7.50145394451872
H            8.42125901686368       -0.12683235730562       -6.25861873120525
