84
 energy: -15.824706210843 gnorm: 0.000585118764 xtb: 6.6.1 (8d0f1dd)
C           -0.21814199533553       -2.23625372265179       -0.75686881662278
C            1.07054936576043       -2.55606169183112       -0.01809396727267
C            2.10046386566827       -3.26522376304427       -0.89797535027422
C            3.40760720507922       -3.55823300184043       -0.16017117453298
C            4.51019139781743       -4.08635396839601       -1.07992066981501
C            5.89168685429599       -4.07013367320769       -0.42201775435486
C            7.03063733322660       -4.39492484780251       -1.39737439178260
N            8.27147613455351       -3.62608862077202       -1.14586042554068
C            8.85129934443414       -2.83046835522253       -2.10442934020882
C            8.30034902450314       -2.42774575532184       -3.33958711556676
C            6.98314013727805       -2.01880510908490       -3.56705012606960
C            6.16758500867383       -2.05974300490450       -4.77777088910137
O            6.33843064647293       -2.43522340672635       -5.92613790735007
C            5.05533233360133       -1.46280975206331       -4.04345367135245
C            3.76291691822551       -1.13064452405125       -4.45904571197037
C            2.92188583064213       -0.15409678119853       -3.88398506368142
S            1.19587656093321       -0.38004134206815       -3.69920580780289
C            0.99178793155758        1.19073822105669       -2.95058089180195
C           -0.16080503875624        1.76640578641434       -2.44562361718360
C           -0.10217257060253        3.03828070529496       -1.91998625420687
C            1.09858222532214        3.73803584356624       -1.90242929740801
C            2.24979731360171        3.17234141820209       -2.39875882754204
C            2.20832283503439        1.87722502130550       -2.91964423977381
N            3.26962723416161        1.10260244045507       -3.45081386269230
C            4.58036126829638        1.71557620746300       -3.76630713909198
C            5.39057144502366        2.11750823932039       -2.52674509305946
C            6.89448146273623        1.88551074964460       -2.68875000259394
C            7.67064284668670        2.07311178360048       -1.38364477670373
C            9.09777859379034        1.52738415585199       -1.45232004522321
C            9.79953290073112        1.53049441179177       -0.09390122702202
C           11.20599698516159        0.95870480711533       -0.15428350654504
C            5.87268875989240       -1.42659686452185       -2.84503182682595
C            5.67393200093359       -0.99842700031482       -1.53133071496178
C            6.71428947635545       -0.91867096709439       -0.62736529833231
N            7.58059471004500       -0.82097884907352        0.14881290928948
C            4.42763378216693       -0.63193538824970       -1.06423505078059
N            3.38135337046737       -0.33782950197028       -0.63848055697909
S           10.48507683352339       -2.42887978999683       -1.62147072070924
C           10.31923643543093       -3.25939484881145       -0.08801181703820
C           11.23606408547560       -3.36435310689582        0.94315082150766
C           10.90925615342481       -4.10013131786661        2.06080780192464
C            9.67631880251758       -4.73547683271172        2.14930829364646
C            8.75803427369825       -4.63411612121726        1.13042112089167
C            9.06928025787141       -3.87767208990118       -0.00161389011483
H           -0.94382791653621       -1.73101751003904       -0.11620991748487
H           -0.69006004607700       -3.14262969871947       -1.13947095362108
H           -0.02831649625434       -1.58573505640378       -1.61170380834100
H            0.86102118292040       -3.17176703643279        0.86601252864410
H            1.51525480987217       -1.63103284523333        0.37332336084846
H            2.31135635733972       -2.63897947645228       -1.77363207951562
H            1.68020451032392       -4.19378530697832       -1.30135128567120
H            3.23244816677016       -4.25882717717209        0.66457163260404
H            3.75357071004239       -2.63604672463935        0.32169804558043
H            4.53874586998328       -3.47322376894861       -1.98799629032673
H            4.26575788543804       -5.09618896544207       -1.42958070120748
H            5.89775933770306       -4.75151378736863        0.43594983605247
H            6.07647337510662       -3.08135902420091        0.01082561792070
H            6.71371910757730       -4.18323795256139       -2.42199270321177
H            7.27302117880460       -5.46191571637439       -1.38563060016408
H            8.95222697389590       -2.44581473459312       -4.20094564183330
H            3.37799016057515       -1.67696690062325       -5.30798310981926
H           -1.08528216673499        1.21609608790836       -2.47391993582753
H           -0.99384007468446        3.49544037644375       -1.52402982646013
H            1.12721797740206        4.73497001067576       -1.49434754159043
H            3.17342764775433        3.72007849378959       -2.39305378453824
H            4.41522370065769        2.57057100601029       -4.42894025499054
H            5.14595915801807        0.99449568773526       -4.36247141370198
H            5.02414006382836        1.54121879783900       -1.67085641680085
H            5.20617091714242        3.16245102517289       -2.25342414274456
H            7.29911561636530        2.53737669268415       -3.47178125337062
H            7.06120606211491        0.86660848455358       -3.05680313805609
H            7.13765751268162        1.56281220530818       -0.57264151145707
H            7.67867746875575        3.13037349311062       -1.09409387053258
H            9.68313682965993        2.09711739916998       -2.18330282732258
H            9.07476231436620        0.50063592495383       -1.83790879699296
H            9.19390578137188        0.95550934376745        0.61970439920457
H            9.81970991587066        2.55328127998046        0.30369628087845
H           11.19409939871886       -0.07404791480226       -0.50543970049326
H           11.69425187369700        0.96642080189860        0.82237495078641
H           11.83448575196785        1.52629468977525       -0.84235806445880
H           12.19070880170422       -2.87504981206460        0.85633913712770
H           11.61577299836018       -4.18781573930766        2.86950841365155
H            9.43758387316778       -5.31322494573413        3.02705809983792
H            7.81148356309049       -5.13647756286523        1.19818302412483
