76
 energy: -13.519882969399 gnorm: 0.000945563406 xtb: 6.6.1 (8d0f1dd)
C           -1.19385073049473       -2.96846010144365       -0.17387370760040
C            0.22287233773120       -2.42959207459035       -0.06084954463178
C            1.05973972421837       -3.17607584518408        0.97860176602288
C            2.48757593297337       -2.64365333906141        1.09382537623789
C            3.32348184815502       -3.39229106858483        2.13135788838465
C            4.75283872032833       -2.86398030220153        2.23812484288818
C            5.59784765188514       -3.60663533337578        3.26762037977228
C            6.99014279125703       -3.08413906061474        3.32118863010585
C            7.86264703108020       -3.26441026028781        4.38077123000221
C            9.04711068263499       -2.62585027872749        4.00512276814754
C            8.85763757985400       -2.07259717049550        2.71066304985927
O            7.57270279791989       -2.37102218773441        2.30086939018124
C           10.05730214434836       -1.42538216592235        2.33585434439820
C           10.97072360084493       -1.57924060666402        3.38837812160649
C           12.31213517656475       -1.14055132204891        3.56609592943130
C           13.13261142541358       -0.37755560106432        2.68960933752212
C           12.91205872721313        0.15730633395495        1.41246462529181
C           14.09112339635599        0.83192464247901        1.02033074755205
O           14.67612041962774        1.56262722153446        0.00423136416824
C           15.94549594858113        1.87736298991740        0.42721258553407
C           16.92059527202746        2.65434400431962       -0.38506253913505
C           16.24550152953921        3.39019870359162       -1.53727531101918
C           17.22257082559938        4.18049627028494       -2.40608205573770
C           16.53756213801298        4.90965416755534       -3.56120790491307
C           17.51315480148721        5.69607304159730       -4.43610561994352
C           16.82789012879410        6.42151050034377       -5.59472455655393
C           17.80277513957688        7.20165725749109       -6.46160974455417
C           16.20396286556215        1.36783060940856        1.68816739627663
C           15.03556868807355        0.70630005419032        2.07350906415201
N           14.42373649782856       -0.02848922729771        3.06202313164014
B           15.11380383968858       -0.39047270375719        4.38426317651421
F           16.23530563657269       -1.16284506952831        4.10454299939202
F           15.44374484711790        0.78443187021950        5.05035462243237
N           14.14567436826899       -1.20625211820770        5.25493357471988
N           14.32808612863382       -1.68080408019788        6.44772657388135
N           13.21577397716296       -2.30014667146112        6.80525974279990
N           12.37584856824376       -2.19488935825534        5.82293798779078
C           12.89844148744731       -1.49438902883925        4.76929048872091
B           10.93268681391779       -2.71423021706782        5.73438810238813
F           10.17885398095475       -2.13432247126950        6.74839481833098
F           10.94200642159483       -4.10184479845748        5.82011998978897
N           10.33121146610515       -2.30829032900848        4.38180847110531
H           -1.78052206081431       -2.42682204434135       -0.91847814609936
H           -1.72158283946940       -2.89316037986062        0.77812313803910
H           -1.19353931912120       -4.02159445461109       -0.45913677915282
H            0.20149098904630       -1.36148824651418        0.19058576359444
H            0.72514900576383       -2.48172768459124       -1.03530710254727
H            1.08472030943569       -4.24395961035818        0.73195403214894
H            0.56667490914138       -3.12087301444545        1.95617678101084
H            2.46384495982962       -1.57600003094170        1.34154046564936
H            2.98054693348892       -2.69830157956542        0.11618571583752
H            3.34399019978782       -4.46060420081173        1.88628257849138
H            2.83512771158254       -3.33312591221222        3.11101469650446
H            4.73892623895858       -1.79557693361288        2.48353227281513
H            5.24590652741478       -2.92150509578241        1.26048816561531
H            5.62570624956879       -4.67551183918839        3.03130321098285
H            5.13958293820212       -3.52768103219865        4.25914935794402
H            7.68285956424527       -3.78093386809271        5.30635173665228
H           10.21849592884030       -0.91302143257128        1.40654258563919
H           12.02091071728507        0.07596761113638        0.81971089213339
H           17.68713794600817        1.97418107297084       -0.77101013281293
H           17.44548996158304        3.36670001602321        0.26025960059301
H           15.47495873070632        4.05980009948953       -1.13762997942058
H           15.69799151389391        2.66745660068558       -2.15367698047142
H           17.99154331885712        3.50617823155956       -2.80064005454918
H           17.76642438330433        4.90192031843832       -1.78521630779109
H           15.77041381763191        5.58562259587071       -3.16585176222613
H           15.99037785657197        4.18745276327573       -4.17826980372360
H           18.28187469881720        5.02024953282902       -4.82875080515860
H           18.05851584367143        6.42026515062290       -3.81969641923038
H           16.05681186958081        7.09306110641806       -5.19591699949120
H           16.28044557683424        5.69209987992880       -6.20532612497089
H           18.33351908546453        7.95539697850535       -5.87802492293339
H           17.30002394130866        7.71633319479736       -7.28284072429803
H           18.55584199245161        6.54398817344443       -6.89849466744255
H           17.10830787203560        1.45133915530654        2.26336518670359
