62
 energy: -10.697810589674 gnorm: 0.000919343655 xtb: 6.6.1 (8d0f1dd)
C            2.25859905315737       -2.18403941505156       -0.48651195312603
C            3.18187033811918       -1.00826297459826       -0.76178023941994
C            3.74034236177647       -0.38054158773879        0.51603573653253
C            4.66412594961443        0.80613252381303        0.24560847858404
C            5.22175578713372        1.43365439841301        1.52248090625098
C            6.14869659727469        2.61045935417543        1.24828331731146
N            6.74307968760714        3.18001747827494        2.47619880716638
C            5.81906528666551        3.64971178545102        3.53027473459699
C            4.75909823679796        4.61844894515174        3.02186506293446
C            3.87421951012196        5.17095069754747        4.13863495795333
C            2.81691105359098        6.15203230656738        3.63404210930780
C            1.93301621104850        6.70790904671215        4.75140911572652
C            0.87419504277250        7.67223332237845        4.24146423625273
C            8.14681242780524        3.22730205037751        2.66091155682964
C            9.01298523393039        3.40310094223395        1.57724800041418
C           10.37261386894212        3.46035041378852        1.76130574720352
C           10.92649286238328        3.34246422553978        3.03252852334025
C           12.31739226439073        3.40680073833177        3.21807706013547
C           13.52650115394326        3.47127474006825        3.37705420389893
C           14.91097750275230        3.55116636814803        3.55919825001121
C           15.49505569147488        4.74634125397573        3.97825856874182
F           14.73616895507875        5.83461881014707        4.21382341194515
C           16.86818572509392        4.82497278763135        4.15569802156256
F           17.42644096059556        5.97833853871159        4.55799410498576
C           17.66506308146440        3.71531930527110        3.91741837185895
F           18.99409695592902        3.79409619824169        4.09082750346917
C           17.08995938471806        2.52397423479418        3.50125308028691
F           17.86330588668051        1.44996032486645        3.27277807871694
C           15.71752458721954        2.43865438855617        3.32107643022211
F           15.17809637700988        1.27292199438452        2.91407669423104
C           10.07034512955276        3.16194711473223        4.11470283879860
C            8.71002515808725        3.10649968352525        3.93529083447471
H            1.86917735812489       -2.62375066006234       -1.40691708699676
H            1.40341139975864       -1.88064897032893        0.11966263139070
H            2.77729766155163       -2.97319908454302        0.06016195536483
H            2.65234150092534       -0.24064425669521       -1.34100624591073
H            4.01453804892788       -1.32426996636591       -1.40374083322096
H            4.27875522129247       -1.14077361692177        1.09430075466434
H            2.91348978410498       -0.06357840483193        1.16259239499462
H            4.12671268539896        1.56678805505508       -0.33292551891916
H            5.49141950288758        0.48854376806071       -0.39994886415359
H            5.76097181393334        0.67712731466320        2.10392263933031
H            4.39403060013093        1.75064205896965        2.16582979478084
H            5.62599210038003        3.40421376267035        0.70879155218821
H            6.95451901032031        2.28119618186577        0.58841141382821
H            6.40610783387582        4.14487697207457        4.30786481533523
H            5.35903124519784        2.78057174742677        4.00741650280801
H            4.13249403622373        4.12858440485430        2.26891585729871
H            5.24869106802393        5.44436283392841        2.49331620416907
H            4.49880307799124        5.66045922713281        4.89492008833558
H            3.38630546979381        4.34200090484153        4.66457843163126
H            2.19108753102134        5.66219758924268        2.87870707583304
H            3.30571896957748        6.97949695681472        3.10616104441849
H            2.56485195551193        7.20262450135453        5.50052583009463
H            1.45815513164055        5.87485681791966        5.28590167988365
H            1.32849916599434        8.52508986123906        3.73506219828295
H            0.25265526937701        8.06340710428714        5.04942743450897
H            0.21141566563031        7.18656693187301        3.52375682251670
H            8.60481687032144        3.53482991642576        0.59128777994239
H           11.03083500449161        3.60403138861226        0.92134565798175
H           10.49365889635880        3.06092096460228        5.09980022384899
H            8.06838779845053        2.93363570176941        4.78056121469766
