63
 energy: -11.396200682447 gnorm: 0.000486162336 xtb: 6.6.1 (8d0f1dd)
C            2.05794558671685        1.32997213629777        1.82672657677838
C            3.03482804651048        0.29393084194002        1.29392994887843
C            3.58349909942432        0.65319105078089       -0.08754481230933
C            4.56192034954379       -0.38676375210391       -0.63204272071106
C            5.10710157737034       -0.02677624185483       -2.01331771750833
C            6.08227719138856       -1.06412489180389       -2.55428089028137
N            6.65722272412330       -0.69694372279285       -3.86551865556243
C            5.71636995728368       -0.38921063285125       -4.96287864170294
C            4.67443919051035       -1.47666810424543       -5.19179904127707
C            3.75712857599320       -1.18036750884854       -6.37733344032368
C            2.70702793949446       -2.26712232314293       -6.60528950374044
C            1.79345308703429       -1.97694591148103       -7.79674416713203
C            0.74604048408410       -3.05776588036186       -8.01209853876228
C            8.05829678748163       -0.61158575470073       -4.05622188771614
C            8.93569241064009       -1.43743250723156       -3.34602134073837
C           10.29392800559386       -1.35791836771046       -3.53793292708970
C           10.83768857468319       -0.45098135569868       -4.44506102650243
C           12.22882239179448       -0.37501924943485       -4.64320732486165
C           13.43709802247671       -0.31185848819406       -4.81885249702017
C           14.82963527097918       -0.25045600594736       -5.02406017718703
C           15.49693020938303        0.97095878872487       -5.03232303596260
C           16.85769537077535        1.02933193549979       -5.23437703762727
C           17.59545251264741       -0.13203701135547       -5.43429120701652
C           18.98201225286364       -0.07295755784468       -5.64044972187664
N           20.13056221152223       -0.02521416535765       -5.81142217471125
C           16.93143917447637       -1.35353708726045       -5.42603274141449
C           15.57061556374117       -1.41162212358635       -5.22425205313530
C            9.96796194928151        0.37578931815277       -5.15294528231524
C            8.60904388770817        0.29808176230357       -4.96491891932919
H            1.67630755270423        1.06470116035909        2.81522836484339
H            1.19884567667314        1.44091015623495        1.16248179148591
H            2.52917321454717        2.31111046482700        1.90933668442983
H            2.55255186140813       -0.69149877769299        1.24750137575711
H            3.87112079382826        0.16729613322080        1.99421030463931
H            4.07405144312272        1.63328470135581       -0.04544928876557
H            2.75254575788695        0.78102684833648       -0.79194982164005
H            4.07199344707646       -1.36720752607716       -0.67432279008674
H            5.39407094141036       -0.51421282279609        0.07093739284607
H            5.60273067127307        0.95055950368488       -1.97488810334458
H            4.27305721019600        0.10505789749213       -2.71152703671695
H            5.60380567639131       -2.04325248334176       -2.64232925291257
H            6.89700586088765       -1.19254073760282       -1.83728156698223
H            6.28973069784681       -0.24929731814812       -5.88293923954899
H            5.23928243924503        0.57274185336908       -4.75667673169305
H            4.06962744264494       -1.61431012238834       -4.28861878721639
H            5.18104063054445       -2.43703096305223       -5.34454701415436
H            4.35854929643934       -1.05241423590271       -7.28551343902475
H            3.26093012557290       -0.21402450261201       -6.22567141401777
H            2.10215736324394       -2.39053265246737       -5.69870615776195
H            3.20370161186102       -3.23432636400927       -6.74949442246531
H            2.40444735938326       -1.85728902260911       -8.70128369095981
H            1.30750152676655       -1.00290382763752       -7.65229949335656
H            1.21147983770289       -4.02936286594771       -8.18781124174606
H            0.10339575027326       -2.84223247759429       -8.86865570029314
H            0.10218889048930       -3.16342203633791       -7.13696888972672
H            8.53626835188826       -2.17198761097126       -2.66958411219816
H           10.95880440640970       -2.00450547822776       -2.99088717461199
H           14.93174188093908        1.87425872926644       -4.87774342857509
H           17.36864527301782        1.97712513638811       -5.24023636898106
H           17.49950471364318       -2.25503573173860       -5.58103654265904
H           15.06234677120436       -2.36081200944737       -5.22021311267448
H           10.37930061249962        1.08452291912837       -5.85144779759424
H            7.95825650543842        0.96976687305371       -5.49605233614337
