65
 energy: -11.313623487116 gnorm: 0.000965235355 xtb: 6.6.1 (8d0f1dd)
C            2.59750135610766        0.56731770724698       -2.17116921640737
C            3.50405602402321        0.74647037149607       -0.96401718873551
C            3.95861600868052       -0.58448632725160       -0.36405257726431
C            4.86712876907119       -0.41571822361186        0.85328597476253
C            5.32787005496937       -1.74903605935365        1.44036292427102
C            6.22327698746798       -1.58334330843139        2.66153891880161
N            6.72569537984900       -2.86538629678858        3.19920470671163
C            5.73200366968217       -3.91780669595487        3.49998720816621
C            4.63371117486024       -3.45372588428529        4.44782960521731
C            3.64650171120933       -4.56454629035780        4.80295358877179
C            2.53812585894400       -4.09958544405078        5.74677885691088
C            1.55283325684371       -5.21180486181418        6.10744604819988
C            0.45299827376302       -4.74305399664294        7.04634615581695
C            8.10478331260518       -3.06206433897689        3.45583986920086
C            8.68549740581911       -4.32988427834127        3.35134146425795
C           10.02449579836274       -4.51688253582512        3.59584128231726
C           10.84201387098149       -3.44876457013641        3.95704069998461
C           12.21405852391299       -3.64019981230726        4.20426391706867
C           13.40661814717015       -3.80250562098330        4.41544345675787
C           14.78221819382488       -3.98667187108019        4.66098980124436
C           15.61718608136698       -2.89617732467122        4.88062171600541
C           16.96143456361542       -3.07767302018258        5.12150617522714
C           17.49799847923657       -4.34775885526029        5.14760161154169
C           18.98433563996220       -4.52745505698710        5.41819414239375
F           19.67530347016056       -3.86165523341470        4.46615437378580
F           19.26078753005981       -4.01633210132839        6.63858910961666
F           19.28877914649867       -5.84391107252583        5.38250803205422
C           16.68092545219605       -5.43818609568209        4.93086105409607
C           15.33594739966903       -5.26217837067745        4.68961736803096
C           10.26786293750856       -2.18469441504213        4.06623019570544
C            8.92970075928064       -1.99351182844969        3.82092179085978
H            2.28521909842634        1.52430637319041       -2.59568325901718
H            1.69419864733731        0.01370267954559       -1.90736330787643
H            3.09934088438219        0.00591371307508       -2.96196682082658
H            2.99318927039505        1.33706961645256       -0.19233278864795
H            4.38593567694966        1.34020441580163       -1.23818489173533
H            4.47609655564580       -1.17552058584657       -1.12945376307205
H            3.08122972044480       -1.18223251334516       -0.08807971947204
H            4.34575446192730        0.16535649930573        1.62366601424298
H            5.74065714157562        0.18932291265644        0.58173295888047
H            5.86204105661275       -2.32639022831814        0.67674451593484
H            4.45262381457226       -2.35589726438655        1.69594302647276
H            5.70117397641325       -1.04880327653638        3.45953003209397
H            7.07938965706177       -0.95996134626958        2.39120408976850
H            6.24830904467951       -4.77119063718750        3.94625245490167
H            5.30968468500991       -4.28177243825725        2.55971702416942
H            4.09109341939206       -2.60931132047902        4.00890508374840
H            5.08977613184259       -3.05504149516608        5.36169112102478
H            4.18608450273188       -5.40580305902665        5.25386135510616
H            3.20260368972679       -4.96936328559268        3.88573419917367
H            1.99629882717093       -3.26089091815873        5.29338176351269
H            2.98226899639485       -3.69004829322646        6.66180273023406
H            2.10151092253509       -6.04974529264964        6.55687807228829
H            1.11485458881659       -5.62058208974170        5.18761352333884
H            0.86824584033919       -4.36321537135568        7.98144463718753
H           -0.24183829981600       -5.54689746102202        7.29853907225462
H           -0.12851328309643       -3.93424858234182        6.60071104116561
H            8.08050985300684       -5.16176850712576        3.03761803086756
H           10.46136898447071       -5.49654521873871        3.50447682270959
H           15.19831574589679       -1.90459757423362        4.86032090948521
H           17.61221986577138       -2.23684095145345        5.29275871005746
H           17.11481062734399       -6.42340534235895        4.95473155635019
H           14.69837178176116       -6.11315907723294        4.52110811554412
H           10.89107552955674       -1.35524229895151        4.35333465050236
H            8.49923334787693       -1.01616006719135        3.94705197315373
