64
 energy: -11.374128232826 gnorm: 0.000841642430 xtb: 6.6.1 (8d0f1dd)
C            2.42889914548202        0.76998916863413        2.22411334758582
C            3.33773246790177       -0.06657535004175        1.33778664941247
C            3.79383780981990        0.68175810529699        0.08484575683242
C            4.70111285514461       -0.15431303028393       -0.81675427525570
C            5.16155106768187        0.60071066442309       -2.06280341234196
C            6.06170570409892       -0.23477250546330       -2.96423383868373
N            6.56652695571849        0.50549899482319       -4.13981006276530
C            5.57409011902343        1.19630033221375       -4.99016312131512
C            4.47299196951359        0.27472349103846       -5.49848214775264
C            3.48736446893938        0.98243333469705       -6.42715253347844
C            2.38020944722299        0.06047360987694       -6.93684391318915
C            1.39445411921922        0.76666643664561       -7.86852499609692
C            0.29404147353690       -0.15469368462326       -8.36957347977537
C            7.94549435886761        0.51688636079373       -4.46167312073656
C            8.52764114258989        1.61211179242379       -5.10815716713042
C            9.86705308947153        1.62320541126821       -5.41382935972923
C           10.68435276983903        0.54259938583592       -5.09034504291878
C           12.05661142053438        0.55725850948216       -5.40076585906829
C           13.24994905071466        0.56970881068734       -5.66547539209418
C           14.62482279271074        0.58271097621537       -5.97064979746228
C           15.46366785153251       -0.43303818681213       -5.51921697730986
C           16.80732843319746       -0.41881163054944       -5.81802222166503
C           17.34248581808188        0.60772577593904       -6.57259903129816
N           18.76799817687588        0.61946453167592       -6.89058679895644
O           19.47581433160985       -0.30766794968066       -6.46740559722760
O           19.21418798714656        1.55599998262470       -7.57138265356714
C           16.52087255703643        1.62197732076045       -7.02636072777264
C           15.17664464809618        1.61149507903960       -6.72979326602285
C           10.10893618194550       -0.55212230376199       -4.44948733684842
C            8.77035125641921       -0.56619229384214       -4.14063117318635
H            2.11385586498300        0.22766385964867        3.11810544596697
H            1.52751946286707        1.07393855540452        1.68926541055633
H            2.92972480489909        1.68175786394789        2.55389889496209
H            2.82821234380453       -0.99313728597765        1.04158875347931
H            4.21932738312839       -0.39597409477699        1.90373006217806
H            4.31246540819334        1.60291212982911        0.37527422405023
H            2.91789476100430        1.01590473910823       -0.48343974809111
H            4.17998700212668       -1.07190717923614       -1.11420885983027
H            5.57441468540357       -0.49420849977945       -0.24783843742669
H            5.69192003852981        1.51410893805862       -1.76872031949179
H            4.28614635866855        0.94736995483105       -2.62271589331468
H            5.54294808496662       -1.13256532289037       -3.31141650274279
H            6.91690697702590       -0.58727728072626       -2.38154919337576
H            6.09104149940024        1.63676555711357       -5.84634146710706
H            5.15439097081727        2.03599342574833       -4.42965567031519
H            3.92927605697291       -0.16271778042148       -4.65383949778571
H            4.92624387100780       -0.57837529999393       -6.01727093252645
H            4.02813515672506        1.41453304087180       -7.27786215251326
H            3.04273067338169        1.83966023904581       -5.90709936364815
H            1.83879928262837       -0.37037317018551       -6.08570593442322
H            2.82555456226028       -0.79785235350448       -7.45460452938703
H            1.94288861631941        1.19592435140387       -8.71710652548872
H            0.95755408283435        1.62877115113354       -7.34801891516019
H            0.70880443191439       -1.00128483303725       -8.91978799635388
H           -0.40148584434267        0.36051758927302       -9.03572143000551
H           -0.28680057903991       -0.56347157764217       -7.54068219954140
H            7.92353452913686        2.47310577667301       -5.33223286240368
H           10.30492482770392        2.47590598363318       -5.90401011071388
H           15.04631781476790       -1.23252870778948       -4.93122028247086
H           17.46113086630774       -1.20136232354138       -5.47231134346251
H           16.95372207619822        2.41429343364235       -7.61307533483619
H           14.53618902710829        2.40144866485838       -7.08319587371552
H           10.73207856105684       -1.39466939913776       -4.20283481423720
H            8.33953687127574       -1.43592128493212       -3.67755905101690
