64
 energy: -6.613776934611 gnorm: 0.007029036191 xtb: 6.6.1 (8d0f1dd)
C            3.69086916443544       -0.01433795874087        1.73724459406321
C            4.32960473652805        0.32483458602683        0.59002152433435
C            4.74971438648855       -0.76320950655225       -0.24797745938044
C            5.38896406693184       -0.37610712793553       -1.50952960832163
C            5.85002108019533       -1.51015588031129       -2.37070606664716
C            6.48022827638380       -1.06337668812075       -3.64407710266483
N            7.03974847658454       -2.12444935532035       -4.44888957986862
C            6.13384979318226       -2.98879321633684       -5.17270335113002
C            5.93752023921704       -4.30913277065528       -4.58524219219490
C            5.10071442190656       -5.23305347205263       -5.36054230240931
C            5.48644191412764       -5.44179102825382       -6.72990219439638
C            4.58689941609723       -4.99197737992392       -7.71171517422568
C            4.50395496782820       -3.65008848039881       -7.89140954337838
C            8.37134137023237       -2.38335409026926       -4.39102777937334
C            9.02625999041583       -3.35620300240896       -5.00872303141520
C           10.30770880205230       -3.62379152223297       -4.88974496640912
C           11.17930615237969       -2.96713034974181       -4.14340452514257
C           12.49995791799531       -3.20647002877249       -3.90559667052500
C           13.67798848890953       -3.43847452911562       -3.67622654681830
C           14.98039372213085       -3.71422144344273       -3.37709437562434
C           15.47989430204403       -4.68680430185119       -2.63748607939207
C           16.76525815897969       -4.88778532352837       -2.37398995886851
O           17.37976016881467       -5.79437656740444       -1.66597441490488
O           18.82435070494909       -5.76147476649002       -1.28260308426891
C           19.28321993834781       -4.69214711764781       -0.70876554732636
C           19.53702448648256       -6.81147314922841       -1.54124220479222
C           21.74731126872208       -3.03038479024582       -0.89013229730071
C           22.83096861947518       -3.66285894694363       -1.08678556361189
C           19.37789679420097       -2.96802306664464       -3.78712788916776
C           19.17215086813446       -1.85934662442116       -3.26913573233897
C           18.06584296558583       -2.71323054197654       -0.46016778105960
C           10.86409575143215       -1.72488172538255       -1.44368582536004
C            9.01352118088657       -3.86768887158194       -1.80911950436958
H           -1.70337863418614        2.50881844166307        3.64257394904453
H           -1.35842722122954       -3.95172942912768       -0.07310305045740
H           -1.10716456416330        0.73442232503853       -2.74439028186012
H            5.33865329390056       -1.48045578814325        0.29744166336625
H            3.70672103367577        3.93258277922287        1.79986803164844
H            4.79459959852563        0.33687492243313       -2.05485106426969
H            5.00469353021265       -2.17472448414667       -2.58410265590637
H            6.56873546462335       -2.12123822552081       -1.81486066199753
H            6.51398913572612        2.17285063709844        0.97003977662324
H            5.85017989340313       -0.42055430254470       -4.23101179448272
H            5.20975071295640       -2.48640599087176       -5.39710022794404
H            6.99662174393746       -3.67216892815033        0.80863872859170
H            8.64787443612088        0.31422338540000       -2.39498127457810
H            5.64758681323691       -4.25205290601980       -3.54888572211898
H            4.91903644902650       -6.16565172353060       -4.84950320294938
H            1.68377832584828       -3.66873163156397       -9.07207597796266
H            4.72045031520106       -0.02753378373418       -6.53844567522931
H            7.61582849056570       -0.91001039027903       -6.75173635396465
H           10.88879811064786       -2.08624032991562       -7.22480309317647
H           13.21189852382992       -1.91932420220308       -6.40328554759957
H           12.82635673668686       -5.55843880079688       -5.62316367760747
H           15.18106699139688       -1.54114010019621       -1.63222301909809
H           11.53759300280261       -5.81887746106583       -3.04465035593705
H           20.31963625635263       -8.33807110700827       -1.87837619047596
H           19.86746113270160       -5.39021202490143        0.89974640374042
H           23.55312331263269       -0.87093255113140        0.01542086931616
H           20.95905483847266       -5.75868533280313       -1.36949334676819
H           20.81693756164553       -3.51286079294252       -0.77547086925493
H           16.33629125604057       -1.68246120606307       -4.80192941765803
H           12.89239962523572       -4.16606507859366       -0.97882443450810
H            8.08458124144340       -1.06877688063399       -0.03561929111491
