84
 energy: -15.978455873768 gnorm: 0.000727828817 xtb: 6.6.1 (8d0f1dd)
C            2.54116457594812       -2.86582700657484       -2.63739756237038
C            3.56570436981632       -3.80998872089512       -2.02901525572754
C            3.90697447825829       -3.45866845907228       -0.58081839349567
C            4.93596569395882       -4.40277040209806        0.04016515588301
C            5.28566187250897       -4.03050361898078        1.47911979965733
C            6.35433446562532       -4.92466383516184        2.09127455400683
N            6.74731688634360       -4.46752678282147        3.43856058531374
C            6.39158377730899       -5.26711294939404        4.56896489949044
C            7.24446382709251       -5.34025388387581        5.67029453238186
C            6.91702379622812       -6.10361975293346        6.76691248371144
C            5.73143128155810       -6.81114143048554        6.78837297671115
C            4.87479504774480       -6.75187897506198        5.70667487736604
C            5.19919723926403       -5.99016893618729        4.60721122339292
C            7.34270209857597       -3.18362950979208        3.57580325428100
C            7.10966825401786       -2.41833998400426        4.72791043489442
C            7.61664450474930       -1.14869950624455        4.86327481378576
C            8.37024548674730       -0.61064621842773        3.82587079361960
C            8.60785818016677       -1.35538807667873        2.66412608331332
C            8.11481711838993       -2.63293076860279        2.54599876639222
C            9.48254450975169       -0.53826470731119        1.70723722831748
C           10.81715260724652       -1.26948810459310        1.41201482076589
C           11.63447363120914       -1.56097654259049        2.65984227201202
C            8.72491400025504       -0.17608303667962        0.40053836832783
C            8.29612144912000       -1.35268629948779       -0.46043767365179
C            9.73332120298091        0.74552097568699        2.50655689924831
C           10.48186261229555        1.85391388360775        2.18665281668156
C           10.56770447509930        2.92518128245003        3.08584299062088
C           11.37625842611244        4.07366308257414        2.73377102490884
C           11.52917827513341        5.18499857297862        3.48051312396449
C           12.35591523928840        6.29374307194578        3.12012637750150
C           13.13813477940842        6.42493326499709        1.99747952042975
C           13.84832549035323        7.63440657615071        1.93828995882513
C           13.63026427696055        8.46882049801938        3.00929096023910
C           14.19733538423591        9.75515141893657        3.25357085365606
C           15.08440863544375       10.41336465672682        2.46944351160640
C           15.57113361071173        9.89222434237837        1.27628805548677
N           15.98703090291072        9.46044027487046        0.27986949652135
C           15.55851173047484       11.74196815449167        2.91177257702819
O           15.12498598439893       12.18913718114074        3.96036592274780
O           16.45927809476544       12.39353689373398        2.11877972555912
S           12.50684025236802        7.71970803697368        4.10933915166733
C            9.87531029543868        2.83774916527105        4.30475626510983
C            9.12755674663687        1.72977840715935        4.62970022402265
C            9.05458764922282        0.67550087033920        3.72701942299850
H            2.30608935349459       -3.12614264704324       -3.67160248638136
H            2.90163668808131       -1.83571086864190       -2.63231534584836
H            1.60639997956111       -2.88191127380455       -2.07435787258564
H            4.48524476551791       -3.80692984519762       -2.62882841535561
H            3.20058802452039       -4.84431877828954       -2.07461965606369
H            2.99262118530749       -3.46134680586236        0.02453099081427
H            4.27752800707507       -2.42765222152084       -0.53084029844021
H            5.84708307020268       -4.40525440704362       -0.57012119345196
H            4.56469726595235       -5.43385743805749        0.00413775785411
H            4.38467663539522       -4.05457633129333        2.10290690619214
H            5.62180142250881       -2.98786446558665        1.51528627242684
H            7.24383651046560       -4.95495397961506        1.45718686119424
H            6.00879909698071       -5.96039335298875        2.14752793105513
H            8.17378350654192       -4.79852541831660        5.64276077499222
H            7.58706078463890       -6.15091139869196        7.60968164359168
H            5.47466182998796       -7.40823522910112        7.64795068632590
H            3.94758740929030       -7.30090224243793        5.72548965204022
H            4.51784446589477       -5.92692510337256        3.77745396776471
H            6.49959066459918       -2.83650922668848        5.50871375891299
H            7.43832617590901       -0.57032688151893        5.75241734108270
H            8.35586034697102       -3.21839115480383        1.67991687942646
H           11.40068567230550       -0.66127572071993        0.71202370030526
H           10.59962726061298       -2.20351568313332        0.88382891455152
H           11.88878320433899       -0.64123593386065        3.18908377421360
H           12.56917210718108       -2.07560136872860        2.42798732879588
H           11.07773214186545       -2.18796508787572        3.35817276332969
H            9.36058032799164        0.49945824818454       -0.18302384424648
H            7.84754377028229        0.42026325989012        0.67634533325882
H            9.14556311699832       -1.97276845755308       -0.74892654864183
H            7.81073483037286       -1.02395603050288       -1.38200552518812
H            7.58384843965459       -1.99198372461385        0.06124717656936
H           11.00319467932585        1.89498500547620        1.24778420158539
H           11.89861734783484        4.01883690778827        1.79606416539245
H           11.00760774420653        5.26731320431674        4.41641468765092
H           13.20938952873979        5.66763033676741        1.23284438395234
H           14.51334272777192        7.88155080599230        1.12688198137982
H           13.89156026571741       10.25316712937136        4.15864996926375
H           16.68021042986241       11.86497166040000        1.32362613852781
H            9.93437131521278        3.65004272474939        5.00623454920688
H            8.60545468473721        1.66671869133396        5.56806277727717
