31
 energy: -6.140736405211 gnorm: 0.000720751509 xtb: 6.6.1 (8d0f1dd)
C            1.03791451417498        0.24485832133873        0.47939819382941
C            0.20458942571810        1.02750782576216       -0.23312648108842
C           -1.22276868808080        0.99306511477415       -0.14177277194994
C           -1.98979819731366        0.17876429395870        0.65484863274214
C           -3.37599098038411        0.38459671707636        0.51597826272084
C           -3.70610348162061        1.36079806890184       -0.39182533659975
C           -5.01698921374922        1.79905760737029       -0.76070127831915
C           -6.16256345356264        1.30612831096562       -0.25151639357065
C           -7.47478276881189        1.74363750797587       -0.63000799848891
C           -7.79776043181232        2.69189986107771       -1.56243906355358
C           -9.19466642877764        2.89630172551620       -1.70775539286906
C           -9.94090095833936        2.11383728866211       -0.89501144984601
S           -8.93689258345146        1.09889921415357        0.07714777273967
S           -2.25519133638615        2.03698184302693       -1.08140222017850
C            2.46801066902927        0.28011585716655        0.38159648680692
C            3.22673692951826        1.09355185047872       -0.41595563717049
C            4.62374675835792        0.88025753412028       -0.28262510560619
C            4.93851435372059       -0.08699102032876        0.60956444208932
S            3.51400382860804       -0.76406233597297        1.31348336470933
H            0.62111887777929       -0.46338575095823        1.17218896174376
H            0.62293355329298        1.73472412663701       -0.92612892815116
H           -1.57136136816007       -0.55548546048216        1.32485447770913
H           -4.10999668641740       -0.17741402836467        1.07145481191689
H           -5.07108207842516        2.57770085645378       -1.50003395289295
H           -6.11024217335686        0.53104465635961        0.49152733546350
H           -7.06338299343027        3.23398312808368       -2.13663543840968
H           -9.61747242257217        3.60676995316356       -2.40348890121206
H          -11.01351923112758        2.10868349028085       -0.84912036895718
H            2.80657148615509        1.82788094245511       -1.08512060343103
H            5.36149055885848        1.43734725931008       -0.84171957685185
H            5.93363452056520       -0.40385475896157        0.85938415667314
