94
 energy: -19.763157035192 gnorm: 0.000789723220 xtb: 6.6.1 (8d0f1dd)
C           -0.22762064407280        0.60118059143640        0.17218164053600
C            1.02497226645266       -0.22444529375195        0.41748659863478
C            1.83886051453022        0.27445930191935        1.61165845218335
C            3.10747309092222       -0.54181726399253        1.85353123493164
C            3.93184285541613       -0.02652736571232        3.03051533865651
C            5.21807263040244       -0.80502265287607        3.24763009856471
N            6.01450545662744       -0.25616588085616        4.33243541986362
C            6.67250534767367       -1.04658198076654        5.28273033082692
O            6.62177829332171       -2.25550362094583        5.39037197135123
C            7.43909247141705       -0.10876215569776        6.11339849399073
C            8.27459277481483       -0.33463101945039        7.18705622245228
C            8.90249945360620        0.74727826053737        7.79994335452372
C            9.79664077712497        0.54455576910534        8.96413538671502
C            9.60482789059396        1.28299004829419       10.13517610902216
C           10.54711931137324        1.28197915522624       11.13160555492150
C           11.70748132386158        0.52629440548128       11.00331394261557
N           12.76240736557191        0.66251641920436       11.96698527573367
C           13.43601812693925       -0.37402887541771       12.64523953870259
C           13.23592352387096       -1.75312384779167       12.63233896526451
C           14.03898711394949       -2.54275465780566       13.41798309981664
C           15.03862634295629       -1.98316353029509       14.21829640132140
C           15.24695430058212       -0.62504491070137       14.24423335709198
C           14.43802972148916        0.19078454774535       13.45278603249376
C           14.39345995663940        1.62173995038128       13.25648191690200
C           15.16284174591985        2.66776974125123       13.76795521669077
C           14.89156606173496        3.94998090099891       13.35400710907607
C           13.86990826451707        4.20559556881816       12.43799545246970
C           13.10188825674959        3.18944465197227       11.92848417580575
C           13.35953310922717        1.88412945089484       12.34236369699222
C           11.86969990992788       -0.27342743882789        9.87492475812729
C           10.93215398066372       -0.26369336138553        8.87024966733592
C            8.69634310587035        2.06524616347720        7.29596995695883
C            9.42103917181208        3.20508233232972        7.91061781852478
C            8.73525985279489        4.20320572662794        8.60589766337526
C            9.42015090321092        5.13974629631531        9.34112324082514
C           10.81101467386796        5.11901156751519        9.40146940487758
N           11.51791254713096        6.02141225608780       10.26442406908806
C           11.22790802784253        6.24946982898166       11.62637542798018
C           10.26447570375072        5.68340190990542       12.45991772144508
C           10.23924775625563        6.04909768075859       13.78302317548479
C           11.15983129689842        6.96752841680056       14.29425632988369
C           12.12174621948732        7.52783659155868       13.48865395291987
C           12.15983934380850        7.16594568629902       12.14188672742380
C           13.06257800417393        7.50868976041242       11.06806045093602
C           14.18204326656412        8.33895871749298       11.01146217194988
C           14.85904251400293        8.45143432220107        9.82102804985186
C           14.44072562379865        7.75073561751701        8.68679941524877
C           13.34575909377405        6.92324274279063        8.72973776404520
C           12.65189740822591        6.79173176441766        9.93143157475876
C           11.50047416747598        4.16147571115817        8.66488361192874
C           10.81831560230127        3.22157454419364        7.93375554776088
C            7.83701611130619        2.26956887624284        6.21892263582911
C            7.21822299783013        1.18393316855169        5.63617187910438
C            6.30726696376175        1.10531130292393        4.48683919270318
O            5.89474431032786        2.02738584971814        3.81202324108019
H           -0.79920075732389        0.23533303359548       -0.68352831171276
H            0.02016389133462        1.64634280576910       -0.02131110594844
H           -0.88857627099801        0.58305364363300        1.04047062999225
H            1.65924039412521       -0.22329407757586       -0.47877359669185
H            0.75951871080670       -1.27818143189028        0.57436566222218
H            1.21585134681253        0.26429050224495        2.51400227149661
H            2.10353175211516        1.32802191971057        1.46138768747642
H            3.72377897285868       -0.53950333272986        0.94651100408478
H            2.84645008686366       -1.59402922786613        2.01797291834628
H            3.33442120001970       -0.04698085473680        3.94933153100650
H            4.18054480323633        1.03085022465536        2.87777080357401
H            5.83336127364331       -0.79808334585164        2.34311600010894
H            5.00854780207840       -1.85429100456785        3.47898071477217
H            8.42762650401821       -1.33568072470289        7.54616667144382
H            8.72657534636729        1.89898844545965       10.22337168425493
H           10.41565522401120        1.88771954728754       12.01123080699307
H           12.45857932337678       -2.17422464424865       12.02029892720214
H           13.89561015570079       -3.61075074343284       13.41959499684822
H           15.65389180079144       -2.62718466907886       14.82468742850810
H           16.01309086939010       -0.18641976310802       14.85872317582634
H           15.95351068173139        2.45959771120590       14.46684321002215
H           15.47635037964297        4.76948833410680       13.73796682772558
H           13.67735663952068        5.21659641331063       12.12564209093866
H           12.32214454326396        3.38579136946734       11.21552159802754
H           12.76915826017646       -0.85570153821580        9.77769471787943
H           11.09131503880363       -0.83650428694683        7.97296639635958
H            7.65890811857145        4.19888479073156        8.59682898714919
H            8.88890371699806        5.89559803790695        9.89256442902305
H            9.57183396448226        4.96235235799030       12.06483770900142
H            9.50146003665662        5.61775974056323       14.43934429526376
H           11.11853147162133        7.23399432123202       15.33746201207062
H           12.84345778748657        8.22415025703888       13.87752133908804
H           14.49717810969391        8.87503382355316       11.88912484331833
H           15.72347777461306        9.09172341070495        9.75920070954456
H           14.98617743542929        7.86254650652247        7.76422736888577
H           13.01400937805328        6.38652150770037        7.85925349152899
H           12.57501605914429        4.13990643274075        8.71432510234271
H           11.35494007723026        2.45307400239653        7.40441642700111
H            7.67215183681026        3.25621876388280        5.82671270762955
