86
 energy: -17.056123279880 gnorm: 0.000825505778 xtb: 6.6.1 (8d0f1dd)
C            0.45955356212649        0.24429571548595        0.27583868623671
C            1.97743678218748        0.18154711890234        0.23411822637604
C            2.55714788901462       -0.81621159702742        1.23676409875085
C            4.08284890145192       -0.88357898815244        1.19943674078709
C            4.66113197221121       -1.87186519322665        2.20888383450779
C            6.17594292897632       -1.94882180622017        2.16851269704545
N            6.68250987326453       -2.89161684394124        3.14606881486484
C            7.14953522743807       -2.37805327066092        4.35761283045217
O            7.13096337644085       -1.18188395618713        4.58876599524464
C            7.65842087318230       -3.33546570511724        5.33768219711523
C            8.15592293481951       -2.88064334470673        6.53065271810362
C            8.65986158282052       -3.74547548633911        7.50537067784704
C            9.14474917657244       -3.17627040500962        8.69429178753860
C            9.58707536333388       -2.81636802418994        9.77390023240061
C           10.12871367121865       -2.65599367628648       11.06430334033359
C           10.29940521235500       -1.41421495097480       11.66275327783170
C           10.83325497479278       -1.31966543803238       12.93040769762050
C           11.20223804579707       -2.46054112581964       13.61432912328999
C           11.03783500187332       -3.69995422755288       13.03025010450766
C           10.50449723221377       -3.79587046140026       11.76388022430654
C            8.66421345462066       -5.12171449078499        7.26879476124102
C            8.14982238097411       -5.61471453116058        6.03772552521957
C            8.13198013725869       -7.00346197856991        5.76073838185087
C            7.61918270585146       -7.45943074561908        4.57460167670969
C            7.10741289818575       -6.59537407422900        3.60316380966639
C            6.59754364236514       -7.16394161595614        2.42424272412553
C            6.11314238362730       -7.51626240429300        1.36020581158420
C            5.51781098018256       -7.65613816335145        0.09103431263798
C            5.27859776944051       -8.88953348062964       -0.50120566029399
C            4.69041943860414       -8.96141736079377       -1.74614926567052
C            4.33486770553090       -7.80644432784085       -2.41345555785927
C            4.56629122954844       -6.57531047892425       -1.83474882923487
C            5.15278464439022       -6.50187322042311       -0.59069195579754
C            7.11769881361688       -5.21809482013671        3.83369856375955
C            7.63995333902561       -4.72442106183161        5.06116099304292
C            6.60263761057733       -4.25686562701199        2.83958080464437
O            6.11135586513345       -4.59462938175735        1.77672222796904
C            8.65833450082279       -7.95916181327493        6.73333959896310
O            8.62532044486273       -9.15920371013122        6.52419378456409
N            9.19187528293984       -7.44121971210162        7.91562527556838
C            9.72625837557529       -8.38841261803592        8.87460489638078
C            8.62026707951823       -9.17933357329752        9.54909972868189
C            9.14196598421723      -10.23186181284376       10.52354622678984
C            8.02608376951580      -11.05256567391888       11.16762846872877
C            8.54769322133180      -12.12537259781760       12.12344780452385
C            7.43381133046751      -12.94967448690489       12.74749899455489
C            9.18904548140114       -6.08195904424049        8.25888093143595
O            9.61421081071872       -5.74681445671432        9.35073274849529
H            0.05856534466408        0.96134954222702       -0.44348731836472
H            0.10363195114955        0.53791520605514        1.26472005853800
H            0.01777067596579       -0.72792160351175        0.05124665465937
H            2.40218141639862        1.17550488330332        0.42584488310070
H            2.31731551421367       -0.08100930398649       -0.77610981142083
H            2.14023228532493       -1.81267813989913        1.04835143748473
H            2.22540726329886       -0.55573231251261        2.24882293092322
H            4.50067527225548        0.11351577923264        1.38198059288887
H            4.41564792831821       -1.15268610569811        0.19005549435871
H            4.25046476584907       -2.87326894901324        2.03337626246733
H            4.34282307215221       -1.60327740905595        3.22283345088888
H            6.62456998707029       -0.97096212928431        2.37321225025835
H            6.52561581499258       -2.26424234952625        1.18032683150595
H            8.15565449394642       -1.82053301551785        6.71416767465153
H           10.00971971262641       -0.52882951232821       11.12341574275613
H           10.96304447496996       -0.35246429437499       13.38737238017244
H           11.61889244892427       -2.38346659810718       14.60510601823227
H           11.32513298709375       -4.59147932793636       13.56277051725681
H           10.36544343055269       -4.75126464121628       11.28433226844447
H            7.61524360784034       -8.51972967496605        4.39244397054719
H            5.55743878515569       -9.78617829431656        0.02508719651984
H            4.50807815831266       -9.92202157457416       -2.19906021742443
H            3.87633058039578       -7.86610609255693       -3.38678361023072
H            4.28862188073807       -5.67285200994486       -2.35390242608682
H            5.34036079907515       -5.55365299680053       -0.11354719228691
H           10.32303615790037       -7.83870082181340        9.60966306323038
H           10.40985686947732       -9.05540028784664        8.33971051051286
H            8.00942881733049       -9.65849570017024        8.77445171983137
H            7.94281198432439       -8.48856055482902       10.06404700450859
H            9.74366494107219       -9.74803559137200       11.30186247243415
H            9.83530379642043      -10.90142691794450       10.00095120238423
H            7.41851879766974      -11.52233694986238       10.38504146543470
H            7.33793047154774      -10.38574981012387       11.70048012280865
H            9.15116660007545      -11.64985444676967       12.90744116084805
H            9.24589443232310      -12.77985806242738       11.58558720244657
H            6.74761864128131      -12.32008563491306       13.31629752292051
H            7.81954656549890      -13.71307076175326       13.42628894256495
H            6.84408341154883      -13.45811460648097       11.98293148280691
