80
 energy: -15.624549770484 gnorm: 0.000613199557 xtb: 6.6.1 (8d0f1dd)
C            0.80492661647785       -0.66756909300709        1.32567346289171
C            2.23706941330272       -0.41820114287301        0.88214571897495
C            2.86004535382962        0.80708837149924        1.55128613963946
C            4.29524143055945        1.07046063762648        1.09903277680954
C            4.91158683116016        2.30238481191862        1.75691876607408
C            6.32468829416824        2.58793693420995        1.28287636930824
N            6.86534149752353        3.77900944362357        1.90871782638334
C            6.34832322732907        5.01186321647600        1.50466932980092
O            5.46086321758603        5.08466111636397        0.67290065125970
C            6.91028213279807        6.20979926021138        2.12578963745615
C            6.45613212308377        7.44581449268362        1.74562897146973
C            6.96151265653904        8.62608294162844        2.29697131355951
C            6.43617823251615        9.84432988493215        1.84152866517735
C            6.07550915405955       10.97544902334107        1.54687726626795
C            5.83700357499626       12.33668864018581        1.37161235084285
C            4.96653345657417       12.97034039996283        0.54055828052411
C            5.01044074444320       14.38894292065664        0.64452759225488
C            5.90893396077905       14.83445939186166        1.54971332323988
S            6.72459641574395       13.50994938675523        2.29943580475999
C            7.96457451350515        8.55739777502211        3.26679979302378
C            8.44920839699215        7.28558119833989        3.67654340262602
C            9.46630755077838        7.17510692110857        4.65643971853493
C            9.91539794547269        5.93891725061853        5.04164915624814
C            9.40420886207353        4.75849591752167        4.49620718001467
C            9.92940928399814        3.54057084357785        4.95209565205810
C           10.28386398290590        2.40876017617018        5.25131238492604
C           10.51211871372858        1.04580414960418        5.42565980802665
C           11.39556729363589        0.40353386114759        6.23606160496077
C           11.33135249435263       -1.01460278713559        6.13672914994932
C           10.40463752476786       -1.45076254066424        5.25568918812608
S            9.58659922904651       -0.11777801379585        4.52351630416997
C            8.40285103852806        4.82690468571492        3.52457148974620
C            7.92261543422082        6.09899886230938        3.11051100817787
C            7.83046168874581        3.61473265875569        2.91126832042214
O            8.15641802369671        2.48676978753288        3.23745061146213
C           10.04533039355475        8.37403853509946        5.25987933796291
O           10.89826154822581        8.29915578993515        6.12681602959955
N            9.57454026111836        9.60838379107092        4.80779402657898
C           10.15114979959800       10.80120071290722        5.39624345790235
C            9.65867017484547       11.01249937417846        6.81594724780956
C           10.26007602585426       12.24687094885238        7.48280400852568
C            9.79347464808089       12.43263488804722        8.92547137559239
C           10.40196691499514       13.66362022984321        9.59739317349461
C            9.94931370331473       13.83250994970523       11.03836094925430
C            8.54056009222785        9.76986146840877        3.87606516278512
O            8.15786915195923       10.89546158736579        3.60856247800033
H            0.37184191178435       -1.54425643836518        0.83981064543812
H            0.16591390763990        0.18572856258412        1.09291258210729
H            0.74790439006977       -0.82756015865603        2.40349976828498
H            2.27822543467562       -0.29509788517480       -0.20779474688289
H            2.85666283078618       -1.29963821194043        1.09175073241879
H            2.83345118314228        0.68618018113791        2.64056651324921
H            2.24343546514478        1.69035798132751        1.34730568361837
H            4.32130658463757        1.18661899717990        0.00921610181660
H            4.91660591811755        0.19190679328994        1.30845900421546
H            4.91242946503431        2.18853458919923        2.84698899905887
H            4.28966475857662        3.18364981162084        1.55889478328831
H            6.34872470116528        2.73721391500353        0.19875249714222
H            6.99181717317993        1.74898242474143        1.50763636635414
H            5.68731314222200        7.49990390754454        0.99503759016686
H            4.30944122903736       12.43993787224676       -0.13149767918867
H            4.38483544820471       15.04275671338740        0.05428067439595
H            6.10246878894339       15.86412068117804        1.78314770183709
H           10.68891726060435        5.88507692532136        5.78742782332379
H           12.07657004041006        0.92755074080295        6.88906086673516
H           11.96414094256819       -1.67478882014911        6.71204490296360
H           10.19307619089151       -2.47844703527880        5.02932255274590
H            9.89609641869064       11.65548194278323        4.76018691543336
H           11.24043581404486       10.69543252008976        5.37334860365261
H            9.89073705185205       10.11735435784309        7.40538297873058
H            8.56472401506280       11.08011753812832        6.81201974358981
H           10.01304208537415       13.13919010345375        6.89581080564457
H           11.35401784082289       12.18022309630425        7.45632268870818
H           10.03871404120752       11.53699458308011        9.50826913793932
H            8.69960206944505       12.50003973139134        8.95305510362343
H           10.14753492684849       14.55769627920563        9.01375222285644
H           11.49658814378636       13.59678167031845        9.55140647996922
H            8.86461824272386       13.93217208151010       11.10193362428897
H           10.38877890495188       14.71619758580963       11.50538987805942
H           10.22863065476657       12.96834830403147       11.64320218798562
