53
 energy: -10.433377438396 gnorm: 0.000492427058 xtb: 6.6.1 (8d0f1dd)
C            0.90149661228074       -0.38315535742739       -0.29993635429579
C            2.39826450471637       -0.18528069837246       -0.12389286565639
C            2.92291615310022        1.05209517108705       -0.85276981735205
C            4.42771085631185        1.25234033934990       -0.68144484811712
C            4.95181333491020        2.49388669295162       -1.39875257177903
C            6.44542324714640        2.69752187548982       -1.22103951834589
N            6.90897906338660        3.88826959902102       -1.90678772367403
C            6.54805421257575        5.13257066537610       -1.37616305456117
O            5.84176983947597        5.21416584120890       -0.38707701158187
C            7.04623727434601        6.33358121823190       -2.05705998752907
C            6.74981508866710        7.57734543112728       -1.56169197104157
C            7.21930499553486        8.72302989704649       -2.19452487731342
C            7.98271266667156        8.62335800683389       -3.31965308720078
C            8.32188735188740        7.37346338556276       -3.87928039208149
C            9.12604654227031        7.23494240253518       -5.06287841098992
C            9.66232424161074        8.38932318240917       -5.77455279709660
C           10.42196882896701        8.36285151040908       -6.90706235289657
C           10.82337689378822        9.65805687129502       -7.38993959538396
C           11.60738475727552        9.94075494250094       -8.52197136687030
C           11.89870959934245       11.24483193169032       -8.82809141860901
C           11.42633485621107       12.28823873902121       -8.03040438761906
C           10.65832075888360       12.02950053479928       -6.92168557117520
C           10.35582647279644       10.71250408641687       -6.60064561192807
S            9.41685356763193       10.05876378402394       -5.27829433660558
C            9.39564947004544        5.95801989447840       -5.52387937829922
C            8.91772273164966        4.82749795632740       -4.87927979211216
C            8.15041413342133        4.92990579281040       -3.74662367326731
C            7.83915814222343        6.21065474660412       -3.22807184246140
C            7.66209857764585        3.72243271462158       -3.07572200352550
O            7.90168248842099        2.61236508646815       -3.51761534745137
H            0.53998727968004       -1.26846350476132        0.22735369036138
H            0.63995475922830       -0.49876502625929       -1.35305504964380
H            0.34305400441548        0.47482290345353        0.07799680412675
H            2.94055979122249       -1.07145229757001       -0.47847905369841
H            2.64616026097225       -0.10906575229882        0.94282673951846
H            2.39082083459976        1.94228301109318       -0.49685103679787
H            2.68004587222599        0.98214545320948       -1.91968274612059
H            4.96152595495425        0.36611309650097       -1.04438598642331
H            4.67130094255875        1.31610208877003        0.38563743622219
H            4.42814687242809        3.38680653785614       -1.03634442219286
H            4.72006783481032        2.43767746630389       -2.46859360694883
H            7.00643450162764        1.83998257261009       -1.60736138299752
H            6.70090170534978        2.79783745744177       -0.16146893347855
H            6.14786898774128        7.64724611254970       -0.67170733743607
H            6.97749770303521        9.69221007207785       -1.79018563162611
H            8.33617605907254        9.52805022622850       -3.79378064809198
H           10.71011896965937        7.45922216598171       -7.41591473795725
H           11.96983998175200        9.13206801354663       -9.13174917581327
H           12.50003453678893       11.46858100140692       -9.69374374613786
H           11.66732731678497       13.30656898484000       -8.28749171390755
H           10.28794060986339       12.82551507726493       -6.29951229264901
H            9.99699213882152        5.83134366683833       -6.40568395839349
H            9.14373581920934        3.84423442901526       -5.25563124309112
