77
 energy: -14.865372329672 gnorm: 0.000739432843 xtb: 6.6.1 (8d0f1dd)
C            1.96488194726969       -0.74649677534995       -0.85936962398107
C            3.32092431529583       -0.14563493289840       -0.52582636020233
C            3.60253021517570       -0.11892497782528        0.97656733301492
C            4.96019699724935        0.49094790857958        1.32263874448782
C            5.23448344500825        0.51178498166875        2.82410968179555
C            6.56764335729892        1.14227538046112        3.18579041857603
N            6.77825982438822        1.14356280940300        4.62088851886367
C            5.97456515587142        1.98329451723747        5.39925677775544
O            5.13219183763105        2.69942444649468        4.88674275876717
C            6.17055149823896        1.96068836202659        6.85249867413587
C            5.41300938296767        2.78007343580388        7.64847115988083
C            5.57683438522010        2.76310849972947        9.02538855886339
C            6.49533154559464        1.93463989706040        9.60434914951954
C            7.30684289785285        1.06514991829317        8.85066857016843
C            8.29222887108343        0.17331504904839        9.41807009836520
C            8.62337941716901        0.01617824470258       10.83235786092192
C            7.96479656705836        0.39477169785724       11.97977887542080
C            8.61025716695760        0.03496145898111       13.18181490291026
C            9.78916386786584       -0.63139657068170       12.99737061913039
C           10.66364779419575       -1.12464713222797       13.96779709465273
C           10.57641614564004       -1.20754177786396       15.32195058177482
C           11.63432366292511       -1.79947928614693       15.98985319054693
C           11.64213479585961       -2.04062791485532       17.43179284726752
C           10.55109105476065       -1.76572173477188       18.25499479772422
C           10.60871520362723       -2.01900230804260       19.60767897488687
C           11.74892257923980       -2.55636725923486       20.18677090041523
C           11.79972964461991       -2.81359594333805       21.65227290319988
C           12.83915222964333       -2.82680673409796       19.37212689011545
C           12.78472226130098       -2.57551436886197       18.01967787166460
N           12.72904901521354       -2.17645529603964       15.26166475736183
N           13.17681817401142       -1.94976731160574       14.01200549490455
C           12.79993806050829       -2.75677320034817       12.96482716708166
C           13.16945751590670       -2.45267219338208       11.66502018418589
C           13.94585402131639       -1.33258501010946       11.43713615048307
C           14.31239504491546       -0.57185756234971       12.48860210429740
C           13.93071967356377       -0.88145235282920       13.71874852777473
C            5.65615942437626        2.12629337484583       12.27456952028517
S           10.09890473100524       -0.81263583672651       11.30312039003494
C            9.02431403337517       -0.61154024100130        8.53737358835915
C            8.83818123813765       -0.58440329655091        7.16841911791279
C            7.90551031795915        0.24815409249544        6.60413877180345
C            7.12968515937406        1.09096908830948        7.43822992640624
C            7.72119549862997        0.25614778607281        5.15222566892545
O            8.36184257260427       -0.48735110195084        4.42863374575598
H            1.77570202732198       -0.76141336727352       -1.93482164331915
H            1.15701581749282       -0.18088022237839       -0.39194603288892
H            1.88875323521476       -1.77361663266888       -0.49843799373264
H            3.39066347855203        0.87441910636073       -0.92570895566691
H            4.11745179980237       -0.70479794003947       -1.03391270222357
H            3.54292633246036       -1.13666474378753        1.38040559917795
H            2.80898722318618        0.43764471279395        1.48947415884915
H            5.01821706474354        1.51101389149224        0.92474007398997
H            5.75631251496788       -0.06243299146971        0.81063842328998
H            5.19665257883960       -0.50663141859741        3.22801277144647
H            4.43608841079701        1.05661958995668        3.34279895448568
H            6.61667770399617        2.17839818320563        2.83625441355783
H            7.39814182059940        0.60370345137268        2.71713016112688
H            4.68937127561510        3.42848097445118        7.18417119390752
H            4.96714160312681        3.39821409568490        9.64762911079890
H            6.55555920990090        1.94844455876914       10.67063888732555
H            7.02409988406421        0.91662608253868       12.02112509922725
H            8.21294862307693        0.26618253041385       14.15834488382575
H            9.69905487000259       -0.86223258349663       15.83350588706358
H            9.65194464855148       -1.35620005386562       17.83136710003600
H            9.76019116939434       -1.80086423152011       20.23350486694579
H           10.91800287145890       -3.36456803044621       21.98170114856571
H           11.83928065184531       -1.87664470705468       22.20897789776522
H           12.67771546345292       -3.40106444635062       21.92284494031816
H           13.73336521632587       -3.23746032883258       19.80857381705953
H           13.62990190567005       -2.78976768773597       17.38875443761567
H           12.18230256792827       -3.61729095570429       13.16159329487102
H           12.85522582949842       -3.07824300308818       10.84631320931218
H           14.25597633258270       -1.06172869062548       10.44174697752174
H            5.92423524871730        3.62171000956884       13.28214820857217
H            4.00466040327994        1.35341354027209       12.36898339064533
H            9.76640261565978       -1.27593958092965        8.94334175459781
H            9.42132705331011       -1.21579894219331        6.51943877846285
