75
 energy: -14.944816327644 gnorm: 0.000382842922 xtb: 6.6.1 (8d0f1dd)
C            0.96923920630774        0.18717246913191        0.05670606297177
C            0.19181127429625        1.28725326884777        0.08915803072883
C           -1.25396985091543        1.28852158404203        0.11098178313531
C           -1.94976718059071        2.48313125544753       -0.11425750626564
C           -3.31843969943480        2.51973039121575       -0.09659971610029
C           -4.06635169775656        1.36612177085523        0.16149475793673
N           -5.48659885896230        1.40497883211612        0.19122498468912
C           -6.20531801528783        2.34214542494232       -0.61999320226597
C           -7.37053757292880        2.94727290953904       -0.14892219531598
C           -8.06635833881068        3.83754091806491       -0.93222204803544
C           -7.61745122943332        4.14120557642420       -2.20223112984525
C           -6.46767476411874        3.54948523045195       -2.68650995494986
C           -5.76799955755035        2.65977211468958       -1.90600234132367
C           -6.21925051203608        0.51002553167518        1.03725452075623
C           -7.43133834494912       -0.03783799017954        0.61729803631044
C           -8.14126286285662       -0.88383433467479        1.43620446384310
C           -7.66000971872409       -1.19930301052412        2.69144015978027
C           -6.46314211069071       -0.66436550097617        3.12499706171980
C           -5.74908485866045        0.18062181556616        2.30867612294386
C           -3.37312070790215        0.17371683769528        0.39584910347608
C           -2.00430011834057        0.13356077190344        0.36706335978439
C            2.41803759955886        0.18964306448139        0.06217007850241
C            3.11513066538729       -0.97736634737976       -0.26552580509202
C            4.48703304795637       -1.00718011717323       -0.26774384768939
C            5.23030877817308        0.12417789016135        0.07311732447974
C            6.70546063229239        0.08873617497039        0.08517627926863
C            7.44060844080583        0.71895246888832        1.07642887206794
C            8.82353373693745        0.65108360132595        1.07710917425516
C            9.61249556294506        1.29271248176049        2.14401871645987
C            9.06492859743794        1.51214544241727        3.40471635923452
C            9.82366347645598        2.09240742751260        4.38475925123479
C           11.11808795048046        2.43816719240724        4.08014007195766
C           11.58661228523153        2.18383233318733        2.81602163615367
N           10.87544875455879        1.62556823908754        1.85215674838018
N            9.50623866878322        0.01138304815973        0.11762177451692
C            8.81175825340404       -0.58854724760734       -0.85905685407157
C            9.58955093084405       -1.27586590587492       -1.90543415843953
C            9.05843363361048       -1.47718739017493       -3.17614535731472
C            9.80642560557358       -2.10501521629522       -4.13494325460997
C           11.07389235448726       -2.51600078698316       -3.79942693864668
C           11.52815657141506       -2.27503011206112       -2.52754193185601
N           10.82709554740535       -1.67115035017810       -1.58399874934987
C            7.42737284651867       -0.58051680053201       -0.89014440769425
C            4.53672885406760        1.28756243949627        0.41149455051180
C            3.16461055838694        1.32226340361393        0.40216372799771
H            0.49518902446377       -0.77492739823103       -0.00795698882501
H            0.66812219111200        2.25025571372840        0.06806876270602
H           -1.39127137212515        3.38226021401461       -0.30914225513384
H           -3.83723313479489        3.44799587987058       -0.25775864302733
H           -7.71073487731583        2.71590127466407        0.84503799761165
H           -8.96336399827529        4.30009109766226       -0.55450263397792
H           -8.16489107611388        4.83802232738800       -2.81540717001293
H           -6.12099685545155        3.78246770789197       -3.67985500279548
H           -4.88333116280720        2.18102759123465       -2.28728744411918
H           -7.79734883249953        0.20286894239346       -0.36522116752958
H           -9.07501860219733       -1.30221850040407        1.09818071939354
H           -8.21886407890797       -1.86070816187602        3.33288555427594
H           -6.09102657514627       -0.90632344845296        4.10692815042636
H           -4.82652855993929        0.61562620505373        2.65053295764252
H           -3.93658699744906       -0.72345682684640        0.58144242085888
H           -1.49876722770493       -0.79503001459660        0.56155634852833
H            2.55886608156392       -1.86193496104065       -0.52353769882509
H            5.00532082129267       -1.91786910902814       -0.51234249673294
H            6.92620807883068        1.26050089220068        1.84773940689549
H            8.05874577246440        1.19800434033113        3.61809124680508
H            9.42137389308730        2.26597125480208        5.36950246841067
H           11.75426904934286        2.89387879763109        4.82121270402425
H           12.60352970230452        2.44502744191670        2.56374771435922
H            8.07501740491639       -1.11257783350397       -3.41397462680909
H            9.41679463839125       -2.26603926173853       -5.12688666722063
H           11.70025831563534       -3.01236614066565       -4.52253338868173
H           12.52407268492831       -2.58749405844155       -2.25088305558497
H            6.90147756254398       -1.09613878492631       -1.67140534096296
H            5.09478953978472        2.17131032777959        0.66728847233120
H            2.65738075674530        2.22853369174574        0.68044604175890
