80
 energy: -16.463420021892 gnorm: 0.000590017406 xtb: 6.6.1 (8d0f1dd)
C            1.31896094854882        0.93913534343804       -0.67693156962744
C            2.80485648305380        0.64583307118810       -0.54780842337717
C            3.21076667182554       -0.66140797196931       -1.22810092491995
C            4.70447850787894       -0.96052182730673       -1.11082413482353
C            5.10142596103706       -2.26820262233405       -1.79035403192057
C            6.58374545471228       -2.57632139054988       -1.68541025772734
N            6.90216032094279       -3.83106207120809       -2.33682914729815
C            7.37717601292437       -3.78661136272270       -3.65291357175129
O            7.54771104991007       -2.72438540997062       -4.22511274561237
C            7.65191149181378       -5.06396340618283       -4.31920372150012
C            8.14404679600623       -5.07941079404308       -5.60032294441337
C            8.40166618030786       -6.28228891444287       -6.24601543617549
C            8.16556535457088       -7.46744534313406       -5.61246138553203
C            7.65896860217806       -7.51919419311594       -4.29692571651726
C            7.39298375699315       -8.75149486207916       -3.60249719877557
C            7.62261226116922      -10.04421930880711       -4.21883724201834
C            7.42066768422010      -11.28184973024371       -3.66061438151178
C            7.71914553280793      -12.36188717875226       -4.51707090240513
C            8.15029745667479      -11.99486708429826       -5.76660524760176
C            8.46722235915415      -12.91740121600684       -6.82969696287743
C            8.58827129963016      -14.27914984387115       -6.74381835063364
C            8.84227519171560      -14.75626320328917       -8.04871657752166
C            9.04129378963402      -16.16123226914247       -8.41494842821418
C            8.90092645809324      -17.14599040311868       -7.45851772052051
C            9.08081893074510      -18.49441216931419       -7.75898189388413
C            9.40540584895388      -18.88414360908181       -9.02263930498236
C            9.56433878869465      -17.92853711387610      -10.04778150358629
C            9.90327163268196      -18.31541343202539      -11.36424866384310
C           10.05649358018602      -17.38545784350612      -12.34665217915917
C            9.87870361798091      -16.02894177799139      -12.06303165061628
C            9.55090767477520      -15.62819833632770      -10.80362039368189
C            9.38210872822337      -16.55423756543850       -9.75303944609908
N            8.86572973224329      -13.73833736327618       -8.90778031412112
N            8.65035125399028      -12.64248460026204       -8.19409677605579
C            8.58370835013012      -11.33331791261477       -8.79776485625795
C            7.53980311211728      -11.00828735596693       -9.64868621110166
C            7.46740439619929       -9.75125187486795      -10.20731748792134
C            8.43945171677127       -8.81228081730502       -9.92398135392059
C            9.48758232256351       -9.13454800060169       -9.08557721121165
C            9.56101158814505      -10.39002468667120       -8.52653348218887
S            8.22744252814470      -10.24767044206436       -5.84377638330625
C            6.89601908891090       -8.68230488588295       -2.30934289377958
C            6.64970694183175       -7.47293978334160       -1.68295620878934
C            6.89133676366983       -6.28066253857026       -2.32233701875886
C            7.40211025796045       -6.28703819148268       -3.64363784580840
C            6.61336446371069       -5.01386656018316       -1.64489169660304
O            6.13627500981444       -4.98559634322606       -0.52305104492350
H            1.04085151047046        1.87451479506369       -0.18690801356477
H            0.71968275355591        0.14393343371801       -0.23059355593559
H            1.02145449522194        1.01635583491837       -1.72399414983098
H            3.09232169836275        0.60764422847702        0.51098079920762
H            3.39108911787975        1.47178599880220       -0.97114334179525
H            2.92454743242532       -0.62971357799440       -2.28613378683141
H            2.63528300487450       -1.49209252407423       -0.80250427785004
H            4.99302735460046       -0.99354266523486       -0.05355892901937
H            5.28190581950271       -0.13314859632892       -1.53997101528903
H            4.81531838656203       -2.24399874226245       -2.84841731143412
H            4.53554740431466       -3.10225846482451       -1.35806077277851
H            6.89519006759308       -2.64865512438017       -0.63839772808369
H            7.18426895376069       -1.78675362107797       -2.14915145925462
H            8.32420151061926       -4.13939313059669       -6.09350012471208
H            8.78600275391318       -6.27633627911491       -7.25271320650946
H            8.37126111786594       -8.38862850276243       -6.14248547366376
H            7.05580380391069      -11.42732670880168       -2.65650976797684
H            7.58998827628806      -13.39290140318037       -4.22668488833183
H            8.50999066385893      -14.86191648735034       -5.84333759602528
H            8.64097304844421      -16.86892768397503       -6.45277256800919
H            8.96166894635173      -19.23312417999525       -6.98334471338267
H            9.54426557645196      -19.92635246636454       -9.25270954385912
H           10.03976621876570      -19.36092663706550      -11.58051111175917
H           10.31554786532955      -17.69344364821796      -13.34632594455232
H           10.00174274932206      -15.29948830772121      -12.84673441296496
H            9.41506768896669      -14.58431375000257      -10.60010153451853
H            6.78978173462632      -11.75098848213963       -9.85772610305825
H            6.65125181014577       -9.50049595296426      -10.86464469091852
H            8.38135662997585       -7.82827801014602      -10.35944284091400
H           10.24735210674480       -8.40247492099899       -8.86614901845861
H           10.37045851658022      -10.65414218702128       -7.86832999033877
H            6.69103988223594       -9.59256661322987       -1.77549950222183
H            6.26071914622567       -7.44404042729593       -0.67928058148704
