92
 energy: -17.893720775824 gnorm: 0.000543693397 xtb: 6.6.1 (8d0f1dd)
C            1.46284630477364       -0.90608547217671       -1.48991719700551
C            2.17230685086350        0.17090792574674       -0.68501329254233
C            3.00954339927585        1.10581277112852       -1.55781068575569
C            3.72312885541167        2.19491357627252       -0.75826528979334
C            4.55044470448386        3.12863013958005       -1.63765916785529
C            5.24852636561616        4.22830362178346       -0.85822156150607
N            5.99691751866810        5.10381148985969       -1.73900639458975
C            5.27272201906071        5.96852665308798       -2.56795449244474
O            4.05481712964434        5.98486647291331       -2.55042014181661
C            6.03229884893287        6.84473923245231       -3.46642797084097
C            5.37440576711693        7.73053718392024       -4.28146383818222
C            6.08204153097617        8.56448408689620       -5.13902490905565
C            7.44438154945017        8.51248729791877       -5.18040433192469
C            8.17796315301375        7.62352950748086       -4.36800848468254
C            9.61410664588418        7.54494212869119       -4.38827639142357
C           10.41702570273381        8.39879194999585       -5.24327899468747
C           11.78767781098735        8.41259882277231       -5.35111547464658
C           12.29694638120092        9.36509049969608       -6.25895135877933
C           11.33600611940927       10.12013564683138       -6.88543088399054
C           11.55564141625742       11.16512372749818       -7.84410116227166
C           12.77248972113331       11.62547654905249       -8.28137526560850
C           12.68735686053665       12.66662577760109       -9.22491049612280
C           11.40326050952087       13.03078023911258       -9.54899240582072
C           10.98788709044606       14.07550157429769      -10.47745195467495
C            9.85323434000629       14.81390788133805      -10.18106310358899
C            9.44268756734350       15.87439935194202      -10.97084418905694
C           10.14918445090040       16.23390100440711      -12.09353135725020
C           11.29410121057727       15.48773105163099      -12.46894904221348
C           12.01073465426258       15.82098203256305      -13.64724872506210
C           13.08513295878787       15.05842926348240      -14.02944964397655
C           13.47209606149413       13.95210063795620      -13.28129632389710
C           12.80090956761317       13.61975954471035      -12.13877841805876
C           11.71254811029638       14.38788573306948      -11.67894023091910
C           11.59337950127879       16.96720129165287      -14.46200955512080
O           12.18794444431592       17.26688028469168      -15.48212278265845
N           10.47984424379672       17.69839033137911      -14.03152510827190
C           10.06758485058997       18.83724707729529      -14.82923688214359
C            9.47849584755561       18.40251269141605      -16.15917478091565
C            9.04930347040654       19.57393679707195      -17.03885067084886
C            8.48406916149686       19.13123036561567      -18.38762479106562
C            8.05932853275343       20.30306677272252      -19.27286280635753
C            7.50830515362215       19.85642548236633      -20.61733668575684
C            9.71481693656419       17.37293380343428      -12.90435956808918
O            8.72254317627226       18.01684552496696      -12.61060466625678
S           10.28297042860101       12.05680814701847       -8.62992693867493
S            9.76675414354897        9.60755374415322       -6.32211073108294
C           10.23162647423432        6.62693017465037       -3.55251699626278
C            9.50834935155667        5.80090436309102       -2.70888353731913
C            8.13679716506976        5.85892082029857       -2.66416599266334
C            7.44928832475913        6.77501646777202       -3.49740643109891
C            7.39147814970978        4.97993304614112       -1.76120285389830
O            7.96236685380325        4.16582878002852       -1.05643096021150
H            0.86858233871806       -1.56753683637309       -0.85619222415647
H            2.17692678982027       -1.52675306762246       -2.03391203564941
H            0.78991789794264       -0.46753711539373       -2.22868897894926
H            2.81682550946731       -0.28836342523611        0.07585332443144
H            1.44109903774407        0.76229624339839       -0.11845283370257
H            2.37002795397307        1.56882267645770       -2.31882951221568
H            3.74633589318582        0.52164499818555       -2.12206071983437
H            4.36832062245012        1.73560618485368        0.00002091951679
H            2.98731869121485        2.77940437670719       -0.19317247281103
H            3.90987106548988        3.59024096047349       -2.39910896856202
H            5.29741042102509        2.55505531453469       -2.19880654491526
H            5.94076299040968        3.80991852508734       -0.11986523635299
H            4.52332117112408        4.83939246136018       -0.31153794379917
H            4.29896007119610        7.76509783648258       -4.24170478651310
H            5.54872126412794        9.25386055260716       -5.77271079444640
H            7.97340094006237        9.17082530191976       -5.85619516656708
H           12.43175954522221        7.75363139779650       -4.79125150566573
H           13.35213891861526        9.49118802097971       -6.44445217093076
H           13.71103422236131       11.23302878774331       -7.92261609673461
H           13.55651819851110       13.17471241712560       -9.61267466031788
H            9.29760951582238       14.56570153623258       -9.29369681131366
H            8.56818452474938       16.44663192364838      -10.71151865378721
H           13.61193230512855       15.32658076203673      -14.92936504892989
H           14.30256660615225       13.35050884757186      -13.61233865666372
H           13.08143282976405       12.73216627588119      -11.60251216804232
H           10.94321330311394       19.47611079480582      -14.98179185985330
H            9.34231944331467       19.41777105624431      -14.24913986401112
H            8.62770020644739       17.73590971150650      -15.97652528586737
H           10.21793557492902       17.78837950514189      -16.68752833766934
H            9.90302720132327       20.24292120917073      -17.19960488135370
H            8.30631172337492       20.18010623817798      -16.50715718793958
H            7.63035145359156       18.46215371822471      -18.22719915747614
H            9.22801108832865       18.52262012102640      -18.91533022255079
H            8.91548227074357       20.97417148082920      -19.42015891982021
H            7.31336376991503       20.90735543255167      -18.74047483551383
H            8.24969715055725       19.28351648009585      -21.17675982871769
H            7.20916711720738       20.70235718605056      -21.23963635417245
H            6.63404013269430       19.21551131364594      -20.49217427189769
H           11.30392929498004        6.55267890337300       -3.55297547975456
H           10.01026355867010        5.09673802345773       -2.06715784772113
