85
 energy: -16.415442526796 gnorm: 0.000361868174 xtb: 6.6.1 (8d0f1dd)
C            1.12351866058515       -0.59921876157351       -1.03418348451840
C            2.57706354619865       -0.41839647058872       -0.62806783109966
C            3.12798652670997        0.95862101326930       -0.99858502006254
C            4.58687512622784        1.15142315200250       -0.58786758669251
C            5.11889593966590        2.54252250435204       -0.92266581307689
C            6.54960819487201        2.76453755486997       -0.46405170211290
N            6.99020003082153        4.12514429158818       -0.71198874294655
C            6.34715781490351        5.15731042488840       -0.01771429162835
O            5.42755451538330        4.92825683066219        0.74751958143071
C            6.81343611198793        6.52815425488159       -0.25110962746123
C            6.19954343541380        7.58078128222951        0.37849456997072
C            6.61973196558329        8.88662243657700        0.15089193200961
C            7.67089465674721        9.13911525804612       -0.68373747580189
C            8.36293039853521        8.09333175220579       -1.32732375766706
C            9.48682077349106        8.31882082856728       -2.19428737175718
C           10.11121467802276        9.62868714200755       -2.34467079808899
C           10.26996368360041       10.57916723832739       -1.36642807308917
C           10.90904000097060       11.75469685478481       -1.79966616930660
C           11.28245075992317       11.74062612337143       -3.12104162263165
C           11.93593949084753       12.81629549932135       -3.85698366195712
C           11.61555000197927       13.00134115105019       -5.19229280315171
C           12.09980987578176       14.07686446951575       -5.91868737507995
C           12.92303264519473       15.01017948089698       -5.33537156720847
C           13.32191671879812       14.84475971810545       -3.98576594855515
C           14.19441936537637       15.78284853375390       -3.37671564835268
C           14.62448412052074       15.57785845591550       -2.09051692628654
C           14.22336196497761       14.45242035970421       -1.37900021683655
C           13.36775718986594       13.54774446654854       -1.94026706469221
C           12.86187821128550       13.72886215136374       -3.24343734216530
C           14.63661547653357       16.96673106810332       -4.12161128093449
O           15.36726450890156       17.79482522335332       -3.60774347829332
N           14.19426825563598       17.10565868214937       -5.44320366339595
C           14.58526714612252       18.29943260462035       -6.17099420236446
C           16.08902503703509       18.38166548847247       -6.36651716611770
C           16.53460157964721       19.66893325743969       -7.05600256252004
C           18.05348888610450       19.79512360872665       -7.16022339900934
C           18.50135571340090       21.09280980423449       -7.83304073832470
C           20.01362663036296       21.23130666497680       -7.89789817605383
C           13.38715332998432       16.16876113671368       -6.10204666983513
O           13.07534623967538       16.31840928673329       -7.27055939533742
S           10.80914880397830       10.21882385767364       -3.83060658333423
C           10.01236992833106        7.24021306989678       -2.88697113480896
C            9.52941062661817        5.95356651640478       -2.71168754804088
C            8.49975058918152        5.69734192035444       -1.83789331770338
C            7.89635779126657        6.76959320692317       -1.13490769986379
C            8.02259115604787        4.32684835864589       -1.63755822562245
O            8.50869509151929        3.39277252639797       -2.25088388858403
H            0.74085453802479       -1.58497199821282       -0.76187242517891
H            0.99786188009441       -0.48446303061683       -2.11201586394606
H            0.48483263994188        0.14459414883364       -0.55499975469764
H            3.19898948881426       -1.19470126546218       -1.09217981301585
H            2.68867597302641       -0.57377563107478        0.45288552324607
H            2.51101456820069        1.73698481035214       -0.53407959848118
H            3.02481358094706        1.11976916923777       -2.07810152920358
H            5.21275698327460        0.39046017427750       -1.06846382465138
H            4.69110054943153        0.97046178382883        0.48845284466336
H            4.48110345124068        3.30414432101590       -0.45787263681314
H            5.04866158412589        2.72741586322050       -2.00064670390461
H            7.23692003678644        2.08082858709599       -0.97344476086626
H            6.64551851423650        2.57420534026445        0.60940818184584
H            5.37666158263958        7.37457867671472        1.04148297775969
H            6.10689205577729        9.70233378922200        0.63331723075437
H            7.95031882648015       10.15664374382906       -0.88614188701062
H            9.96838267475352       10.42248808738986       -0.34230453872765
H           11.03912201508859       12.61512189597417       -1.16183985669415
H           10.94069462485448       12.30520148148397       -5.65880877929133
H           11.81991807128595       14.21449680389190       -6.94927386809769
H           15.28975371217496       16.30029706609973       -1.64926514820321
H           14.59561539949566       14.29393610080250       -0.38027557970851
H           13.10956782595974       12.65851126716134       -1.39521271890640
H           14.22122249755319       19.16507012200836       -5.60895520193372
H           14.06359784218666       18.30179345551349       -7.13392774909618
H           16.43280644553963       17.50789510277369       -6.93174044684873
H           16.57386656548685       18.29940866812118       -5.38625586115460
H           16.13349780296833       20.53163362553575       -6.51104161598875
H           16.08632172876848       19.72754624831327       -8.05470968817768
H           18.45895283417051       18.93565491208733       -7.70687462184319
H           18.49529453688821       19.73025674045821       -6.15878820050483
H           18.06787266950163       21.94663607729891       -7.29628435421150
H           18.07249940471794       21.14476091809532       -8.84214297883511
H           20.45356303656396       21.22061808543555       -6.89931991913076
H           20.32001719229903       22.16118977349829       -8.38136831193980
H           20.46187442560061       20.40759503773474       -8.45572152158130
H           10.83941749015492        7.41247070087695       -3.55334278058796
H            9.96518175638413        5.12603506851016       -3.24524325014937
