54
 energy: -10.500394090551 gnorm: 0.000859879951 xtb: 6.6.1 (8d0f1dd)
C            0.99199452772165        0.57977156609465       -0.24746900254075
C            2.42907111921981        0.14663019563305       -0.00738873206897
C            2.99437880752960       -0.69103118597255       -1.15443004523024
C            4.43781818461896       -1.13296856488442       -0.91839570740214
C            4.99084915074493       -1.98533832334938       -2.05718909158823
C            6.41447520272156       -2.45619717534759       -1.81892647990159
N            6.88182013665257       -3.29755652535254       -2.90378339316163
C            7.82792306400295       -2.76738052176431       -3.78945417993030
O            8.24959631541151       -1.63261288516528       -3.65344166325021
C            8.28613613369964       -3.62424602355916       -4.88831631129925
C            9.20782219524341       -3.15649803473977       -5.79062429772192
C            9.63185182641386       -3.95194278288490       -6.84963797711114
C            9.15077339829926       -5.22203354621109       -6.99735887156297
C            8.22574812902219       -5.76471608010347       -6.08324265668507
C            7.70014790056214       -7.09627824064589       -6.20421000473153
C            8.17275097959529       -8.04541132586616       -7.20723774132240
C            9.46208127148797       -8.22210005007089       -7.64184597634095
C            9.60905806409059       -9.22842063325672       -8.61861908689289
C            8.43813160554039       -9.85612874746731       -8.95559182448518
C            8.28249877444817      -10.91277408249534       -9.92256329293607
C            9.27539254361297      -11.47230821016424      -10.67802934108951
C            8.82268340352974      -12.49730861351584      -11.55045582344208
C            7.49304215122830      -12.72608253152072      -11.46855409603618
S            6.76050328322754      -11.67999410724476      -10.30782582030705
S            7.13059874092816       -9.18199711968541       -8.02487405807900
C            6.70866563893968       -7.49845163778581       -5.32418296400398
C            6.25965155042614       -6.67698547515015       -4.30410604895024
C            6.78006578875499       -5.41670288638518       -4.13148239574270
C            7.76760260110967       -4.93743969824328       -5.02791377366149
C            6.30777310906842       -4.56833162008962       -3.03605942004090
O            5.44011167123737       -4.95046968209819       -2.26986449006630
H            0.59893985197268        1.17447964504018        0.57974724884825
H            0.33537401633947       -0.28298203243474       -0.37245009149099
H            0.90731615156807        1.18196280661951       -1.15374572226390
H            2.50003074510943       -0.42491942721466        0.92737673418159
H            3.06808447416875        1.02557843380784        0.14888636666857
H            2.93142810962486       -0.12428751036281       -2.09105026766640
H            2.36178997933475       -1.57280268043163       -1.31212539323758
H            4.50213818797527       -1.69275265509165        0.02226348419443
H            5.07604114386418       -0.25341235684965       -0.77259095345618
H            4.94708055720176       -1.42988166246265       -3.00122952596633
H            4.35203306404736       -2.86386403723567       -2.20999933624249
H            6.48318224662449       -3.03404511073055       -0.89184322073571
H            7.09933606680599       -1.60713220411156       -1.72155621259643
H            9.58510255348220       -2.15546211109036       -5.66830874261102
H           10.33923747960151       -3.55792999734990       -7.56067332611805
H            9.45499365722328       -5.80712831738783       -7.84561557966748
H           10.29773516916218       -7.67521043763140       -7.23333869131360
H           10.55977152877533       -9.48293632632787       -9.06019592999925
H           10.30704020839919      -11.16313235665707      -10.61621387768780
H            9.48054251521281      -13.03738711312525      -12.21581570671160
H            6.94734680276038      -13.45281252825597      -12.04002983437291
H            6.30087624985480       -8.48870618978586       -5.42895786941527
H            5.50151197179846       -7.01640128163672       -3.61903898475326
