50
 energy: -9.485648359514 gnorm: 0.000955736014 xtb: 6.6.1 (8d0f1dd)
C            1.13897000125111        0.45363874904112       -0.55531438680526
C            2.63973278786453        0.24821650171055       -0.42836299719110
C            3.01897684129872       -0.61609793439317        0.77426963468795
C            4.52656597556952       -0.82051808771403        0.91315325835705
C            4.90062149057313       -1.69506212321756        2.10704351890374
C            6.39701037906455       -1.89934753697734        2.25309315654488
N            6.70279345726487       -2.75334074582329        3.38290387153036
C            6.91970172736728       -2.14455894557510        4.62477508675940
O            6.84975563370850       -0.93527788431827        4.75363489295869
C            7.22925679786134       -3.01664369564090        5.76351209900490
C            7.52226870819732       -2.47327619012242        6.98823091002611
C            7.84239806573121       -3.28939528693159        8.06864437309187
C            7.85194133932610       -4.64808207325806        7.93085061305257
C            7.53009050874919       -5.26143935750063        6.70305729500113
C            7.52663471535346       -6.68510402116715        6.52183482380212
C            7.76475803647734       -7.62081401947275        7.62150331143375
C            7.28065598131502       -7.53317004607198        8.89693201857910
C            7.68026980348137       -8.60279149113165        9.73862503586153
C            8.46391969017268       -9.52570496135515        9.12418521382607
C            9.03160395198305      -10.73245753236139        9.75527045669275
S            8.72256858320108       -9.07365950579156        7.46721666515701
C            7.28998549361341       -7.19065497158051        5.25625050056875
C            7.01504556889293       -6.36347076220039        4.17832930041677
C            6.97517745657180       -4.99892074361896        4.32810063891646
C            7.23795809396329       -4.42564183046636        5.59731721427213
C            6.67911523226154       -4.13866135024716        3.17964571439060
O            6.41561473916324       -4.60909148014624        2.08673682253259
H            0.88074102427520        1.06993969689370       -1.41903440473291
H            0.73142149987876        0.94318112672755        0.33073321353391
H            0.61817655185964       -0.49906288052761       -0.66460794916322
H            3.14851028385169        1.21798807528836       -0.35263416032437
H            3.03693010744274       -0.20999825420441       -1.34344863189279
H            2.52144797281660       -1.59024883175375        0.69866173247543
H            2.62339824796208       -0.16444877255362        1.69172248011913
H            5.02483473769005        0.15223159719882        0.99986369220750
H            4.92471791777745       -1.26559714096446       -0.00632083934141
H            4.41501125424449       -2.67440775518006        2.02155767135819
H            4.50767236793509       -1.25754714267201        3.03232468099091
H            6.91184790962701       -0.94388365181023        2.39761962647556
H            6.81844018054530       -2.36158081511054        1.35452174242879
H            7.51318567837363       -1.40166083105475        7.09182249705081
H            8.09230052717941       -2.84267743827923        9.01687674485778
H            8.14122496798533       -5.26107930236378        8.76450143295484
H            6.61842902857187       -6.74550971585673        9.22172827791685
H            7.38458645054501       -8.68391926191406       10.77367453107470
H            8.34929029138826      -11.14387004673188       10.50029667189842
H            9.97578004466259      -10.50285560812001       10.25039862731983
H            9.22048583360314      -11.50631893838489        9.01000160951702
H            7.30621774396711       -8.25757092654124        5.11752579670949
H            6.82362831754696       -6.77842585574858        3.20347591419653
