51
 energy: -9.625152462866 gnorm: 0.000977912207 xtb: 6.6.1 (8d0f1dd)
C            1.02465137727183        0.51724957647502        0.03291972435461
C            2.51460256996284        0.23404564393241        0.13517719557086
C            3.04360119883330       -0.58490319475566       -1.04236459140508
C            4.53772760946348       -0.88667254500197       -0.93900232825500
C            5.06238815773237       -1.70031110389518       -2.11912217049640
C            6.53793642738773       -2.03916110384025       -2.00635187311983
N            6.99156042396165       -2.82035001846172       -3.14132940072079
C            7.83180617270791       -2.20110392865512       -4.07405632787444
O            8.17629752811204       -1.04039690287345       -3.93589872477760
C            8.27455879856701       -2.99503215574712       -5.22364215922079
C            9.08011834877612       -2.43064449743775       -6.18181747417443
C            9.47932454971638       -3.16337865778418       -7.29201820649936
C            9.09738517480718       -4.46874279550367       -7.43571577155483
C            8.30678703659105       -5.11217885858095       -6.46426075775165
C            7.89273630058525       -6.48681665453567       -6.57357062746449
C            8.38418334558117       -7.39265775848898       -7.59557347371453
C            9.61229594590721       -7.38908303975227       -8.20991327909492
C            9.79660856849833       -8.41979670990573       -9.14791922269821
C            8.71403727225369       -9.26098113814868       -9.28831201507755
O            8.56958560117637      -10.35786184331558      -10.10573356329092
C            9.71030352393272      -10.64089065508394      -10.88115452570947
S            7.44594350147285       -8.74058657735911       -8.21511909198680
C            6.99065163293368       -6.97806075414595       -5.63715687877795
C            6.54688998615590       -6.21380663610470       -4.57560098904080
C            6.97919902037291       -4.91757195140499       -4.40745854403027
C            7.85984266132660       -4.34469500305718       -5.35820779330090
C            6.51383620444866       -4.13106194342400       -3.26688427626717
O            5.73060715423552       -4.59487036752580       -2.45495375038600
H            0.65979916551540        1.10416165738981        0.87833260302415
H            0.44801700337367       -0.40896059552321        0.00316791643741
H            0.78981203935751        1.07146215439082       -0.87752497280942
H            2.73510164050554       -0.29427504665932        1.07206038713503
H            3.07495790887361        1.17584216422599        0.20220739686778
H            2.83900946677776       -0.05581588918604       -1.98079019242393
H            2.48372479600244       -1.52481838305639       -1.11773736644188
H            4.74088100694671       -1.42314389122444       -0.00455060740063
H            5.10056828333484        0.05092030652582       -0.85922491414040
H            4.88679455877606       -1.16102485961168       -3.05717343461660
H            4.49370098249782       -2.63360019120975       -2.21274492354018
H            6.73642589373517       -2.61723163304445       -1.09836814147322
H            7.14678714592570       -1.13055171262840       -1.94986376764290
H            9.37962439597229       -1.40342258474732       -6.06188750681655
H           10.08661971908980       -2.69380356534337       -8.04843409361032
H            9.36504141377291       -4.99768454823243       -8.33135031116342
H           10.40080875228882       -6.70396281235731       -7.94128352833100
H           10.71448852706963       -8.54972596330178       -9.69825866164877
H            9.50988433285584      -11.53075805554647      -11.47875249740631
H           10.56210221924264      -10.83378344561253      -10.22796821699226
H            9.92294687641304       -9.80307471143652      -11.54609686955093
H            6.65963291948339       -7.99743925642571       -5.73186015763519
H            5.86442485941830       -6.62346756300193       -3.85044724305593
