49
 energy: -9.500109487072 gnorm: 0.000656770386 xtb: 6.6.1 (8d0f1dd)
C            1.03075494975788        0.45225788353405        0.00383962011426
C            2.53019395195819        0.21643179057934        0.08337736861994
C            3.06835380376968       -0.58359096871939       -1.10300368060335
C            4.57351011075022       -0.83526283313911       -1.02423242635670
C            5.10443005127365       -1.64045354665446       -2.20746484109136
C            6.58849571594660       -1.94638912294195       -2.10978639580690
N            7.04242676121578       -2.74040451426204       -3.23598240319084
C            7.88557218555438       -2.13276651503541       -4.17263586407673
O            8.22251142549187       -0.96904858027778       -4.05227798496857
C            8.34408433079328       -2.94405962289090       -5.30438264250515
C            9.16285352774831       -2.39615774983597       -6.25899824569717
C            9.58435133862729       -3.14943934904004       -7.34906870208852
C            9.20338902858289       -4.45490164439670       -7.47712981103364
C            8.38775580394271       -5.07759820477959       -6.51137763094929
C            7.96759425050231       -6.44673136307552       -6.61129819277870
C            8.44403835915474       -7.34400964347267       -7.66019205917867
C            9.71027484648655       -7.41861775424829       -8.17847289525853
C            9.86353188990187       -8.40399556653168       -9.17883001052008
C            8.72711161392579       -9.09757244279214       -9.43489056568514
N            8.61736388455313      -10.16072257745941      -10.41278969628109
O            7.53341935499954      -10.74537685304271      -10.53660039487170
O            9.61685028423468      -10.44342154154827      -11.08783776256193
S            7.43685183329713       -8.54130331757742       -8.43307347606637
C            7.07750760977070       -6.93617062621525       -5.67052286687287
C            6.62901807858554       -6.15951142465822       -4.61530822023478
C            7.04982150742814       -4.86007679469714       -4.46705432986695
C            7.93250485999372       -4.29621285571169       -5.42112316225181
C            6.57428657582937       -4.05545575999285       -3.34078623452968
O            5.79124385408564       -4.51011679822072       -2.52581679340688
H            0.66009425391285        1.02455115125324        0.85642055160890
H            0.48399617233553       -0.49158746360169       -0.02049578652892
H            0.76490742851655        1.00152487218528       -0.90056489354454
H            2.78052168909405       -0.30597312446699        1.01553616266641
H            3.06045188518222        1.17539745075078        0.14410183949332
H            2.83091341962044       -0.06168560607004       -2.03732110933581
H            2.53980652438711       -1.54180732139381       -1.16932642394641
H            4.80956941372742       -1.35871586888016       -0.09046170293007
H            5.10673188774506        0.12032619052154       -0.96028192453830
H            4.90567140719601       -1.10992858613861       -3.14561680238123
H            4.55708213084142       -2.58730595701234       -2.29008159411972
H            6.81132619219234       -2.50443447649304       -1.19507292942233
H            7.18030918179223       -1.02540891644170       -2.07895497499672
H            9.46088734470314       -1.36686624798194       -6.15138204480419
H           10.20940746748091       -2.69490365101776       -8.09973888608415
H            9.50099055528363       -5.00789163307121       -8.34889017124707
H           10.53032063769457       -6.81670572312729       -7.81856569076034
H           10.79139304873099       -8.60725954023333       -9.69292205443215
H            6.74705099864855       -7.95666004014046       -5.75748219617731
H            5.94774657275226       -6.56375721153621       -3.88572906851989
