94
 energy: -21.106282071484 gnorm: 0.000299968157 xtb: 6.6.1 (8d0f1dd)
C            1.07120179381260        0.05669624395514        0.06769551746764
C            0.27822886916456        1.15046827028496        0.08983547232444
C           -1.16751528650365        1.14105636057320        0.09616639434501
C           -1.86825085509566        2.34461046997433       -0.06724335933416
C           -3.23997315154419        2.37404037092370       -0.05374045450815
C           -3.97988142529704        1.20592017609717        0.13651411738178
N           -5.41088630593837        1.24190555450067        0.17237761467314
C           -6.12966502153219        2.15331052622617       -0.67481771426254
C           -7.28183079025244        2.79269454052325       -0.22194483370182
C           -7.97139402192324        3.66200694044660       -1.03868372406284
C           -7.52376398929388        3.90912932717748       -2.32306863966132
C           -6.38219244795010        3.28275839033310       -2.78717076456585
C           -5.69136837040494        2.41349174155584       -1.97165661603082
C           -6.13158366576697        0.37920123236884        1.06725468781581
C           -7.35422534670966       -0.17580332152609        0.69521009228793
C           -8.04640904038894       -0.99659817363769        1.55864182810321
C           -7.53101306968704       -1.27896504641139        2.80992235503085
C           -6.31934202241678       -0.73584813906700        3.19419293866266
C           -5.62630204505458        0.08544202194678        2.33222069998363
C           -3.28809744924596        0.00478249089685        0.30235613547839
C           -1.91600147718591       -0.03047695086488        0.27953412010926
C            2.51602303610196        0.07320030640334        0.09835551464271
C            3.23219125866663       -1.10995687407012       -0.13363316617336
C            4.60442064267889       -1.12738377582870       -0.10686655726997
C            5.33895503483309        0.03404070055982        0.16739997328433
C            6.81131759448924        0.01697121243339        0.20895462051889
C            7.55214982893173       -0.86098175388912       -0.59351336591851
C            8.92435793512082       -0.86469554652392       -0.56239541234178
C            9.63419975065633       -0.00026917510814        0.28343012110666
C           11.07918744581165       -0.02494973234948        0.28700879813228
C           11.86870366934915        0.61594518244902        1.17669595422510
C           13.31448158447755        0.62432288968693        1.16314021982772
C           14.01446616857956        1.16674628265366        2.25039632073888
C           15.38612737905565        1.20020348787516        2.26530640595013
C           16.12651171655092        0.70623898080856        1.19012239665269
N           17.55741259691789        0.76119438159696        1.19721310634096
C           18.28010303636057        0.56638758004183        2.42378665133628
C           19.43544012606226        1.29594920754893        2.69639161838520
C           20.12934029183396        1.10227205723234        3.87081251475300
C           19.68287249579053        0.17642171985059        4.79522377920112
C           18.53811076849853       -0.55511592171581        4.53974787536870
C           17.84302459185741       -0.36247666469733        3.36599395742631
C           18.27347946227647        1.02729680634587       -0.01978027240846
C           19.49460333270435        0.40917891818737       -0.28068432995286
C           20.18172031487947        0.67219894122262       -1.44559713153266
C           19.66269933476454        1.55726314677754       -2.37208054679963
C           18.45236514936787        2.17878264047866       -2.12792901504024
C           17.76426839304871        1.91711560227369       -0.96352570982014
C           15.43544559432794        0.16872659726368        0.10281359533116
C           14.06356901006169        0.12396080300129        0.08848685478589
C            8.89297156842167        0.87527121656867        1.08981869961652
C            7.52110581276729        0.88505081306907        1.04937696360711
C            4.62279026398015        1.21449360056967        0.40653724608555
C            3.25099700439952        1.23621062987615        0.36947912915086
H            0.60809307205565       -0.91146198473126        0.00155824303372
H            0.74384342504673        2.11962154082943        0.08272865368652
H           -1.31263436087637        3.25670454630473       -0.20770333636662
H           -3.76579260173073        3.30565268538837       -0.17326601498243
H           -7.62089650168193        2.60228107898032        0.78184665505327
H           -8.86138587577610        4.15095863016384       -0.67503957462630
H           -8.06445622442350        4.58925854162501       -2.96225144987465
H           -6.03243861364801        3.47333835748183       -3.78952001897388
H           -4.80690197076116        1.91539409833350       -2.33011455930101
H           -7.74701868195108        0.04201133023697       -0.28309392222614
H           -8.99172711897558       -1.41981720809531        1.25757751607618
H           -8.07340128622007       -1.92159915947273        3.48542185492543
H           -5.91644367323673       -0.95381252102158        4.17067862132021
H           -4.68754453527359        0.52014866868695        2.62990054122329
H           -3.85314417063106       -0.90086150678894        0.44136199441711
H           -1.40922340356057       -0.96875646620143        0.42156338420595
H            2.68689578207477       -2.01608075868590       -0.33899266662778
H            5.12989332777440       -2.05221652495715       -0.27309201961401
H            7.03152620929811       -1.52375462281918       -1.26339760982901
H            9.47457013846112       -1.54248707514428       -1.19362236231575
H           11.54603895802130       -0.62274805743394       -0.47513717455135
H           11.40062805785195        1.15386203782574        1.98147781049502
H           13.45831740437225        1.55910130683002        3.08532634004099
H           15.91151152866691        1.62538762743326        3.10308549039567
H           19.77372409225972        2.02101147726378        1.97620966415292
H           21.02186956035286        1.67442253441789        4.06939320173285
H           20.22692588492582        0.02474368827883        5.71418054464433
H           18.18925888843912       -1.27893351274392        5.25929516701794
H           16.95614546354002       -0.93567981992045        3.15682620424823
H           19.89004088481179       -0.28459057300530        0.44120338579116
H           21.12587979372757        0.18638484831020       -1.63512617858555
H           20.20125887874965        1.76289584465846       -3.28374180844101
H           18.04661040301754        2.87073082932419       -2.84898649991145
H           16.82631968336344        2.40582324600760       -0.76285013698142
H           16.00098675545600       -0.21999729263667       -0.72655609385856
H           13.55734724656267       -0.28510830290840       -0.76811457129372
H            9.40667611590435        1.56170816250307        1.73978684128984
H            6.97447033577958        1.55608401910779        1.68968466494877
H            5.16447171133709        2.12439658290665        0.60082899676795
H            2.73238834249115        2.15780641680785        0.56756754613969
