47
 energy: -9.031101948178 gnorm: 0.000839158166 xtb: 6.6.1 (8d0f1dd)
C            1.11055888333612       -0.48216061960135       -0.04449964904401
C            2.62029231462327       -0.30880047330848       -0.08616244586683
C            3.07618406212344        1.03523099270656        0.48161235079257
C            4.59159251838214        1.22476767864826        0.43610845051868
C            5.03485873012604        2.57409595342340        0.99495938086080
C            6.53629469713677        2.78982936609956        0.93428590340667
N            6.90249868338933        4.09262844487028        1.45584001657859
C            6.53258581157442        5.22026073189690        0.71257024726991
O            5.93022160218753        5.11099883838969       -0.34045314719699
C            6.88551119178133        6.53769483047278        1.25284964503303
C            6.59391298247192        7.67504668318627        0.54384030266427
C            6.93836670233207        8.92900694897352        1.03880071526292
C            7.55809855486627        9.04821376125504        2.24980067097443
C            7.85738310220007        7.91479892156031        3.03282209750889
C            8.50300918901381        8.00216045988638        4.31137834716728
C            8.79995693258005        9.28213766198950        4.95554294726518
C            7.98935504975937       10.38317780458396        5.00578695798142
C            8.54932413374871       11.47668294634578        5.71575683857655
C            9.78007828959158       11.22097098765254        6.21466673286573
S           10.27948552019166        9.61629287983840        5.82536880166166
C            8.84616747722922        6.83031870345634        4.96123318541190
C            8.53615745843054        5.58546609973308        4.43542702999185
C            7.87852431588041        5.47011034445678        3.23519526562685
C            7.53595440433725        6.63844872900176        2.50961082192438
C            7.53865275006785        4.14829618403829        2.70261670805547
O            7.79289428022487        3.13164219570877        3.32444907614209
H            0.79644427075249       -1.44513647820656       -0.45253012520312
H            0.60810116320173        0.29782159622202       -0.61930543029852
H            0.73446724024767       -0.42044853033410        0.97816906289788
H            2.98351504154230       -0.40822204209834       -1.11735299866426
H            3.10985040746163       -1.12096589554655        0.46707955105235
H            2.72388189182047        1.13701771875847        1.51497762662987
H            2.58846880017176        1.84994242626476       -0.06698436804727
H            4.94522320365658        1.12136415106311       -0.59651505664159
H            5.08336740663104        0.41662688284254        0.99037697079047
H            4.69718978173822        2.68162184359168        2.03213144117126
H            4.54161556957732        3.38561245584226        0.44623287452998
H            6.89843178605811        2.72483256675855       -0.09646449798917
H            7.06767181420286        2.02602825402415        1.51190056627823
H            6.10337373177323        7.57536579482110       -0.40941714402393
H            6.71907071019938        9.80931758574385        0.45735753015311
H            7.85149363231931       10.02072135038604        2.60054412550830
H            6.99596305952293       10.40168870142828        4.58453844958493
H            8.03702242091325       12.41898991533669        5.84700038647038
H           10.37739280989883       11.90905391816512        6.78224873781978
H            9.34817088636246        6.89737851004639        5.91066551393915
H            8.79773473436581        4.68510221962103        4.96491953262095
