75
 energy: -15.161868617502 gnorm: 0.000536100894 xtb: 6.6.1 (8d0f1dd)
C            0.41985191166525        0.00227627100899        1.15350183311043
C            1.88466670577442       -0.11532553917295        0.76502793824639
C            2.70009043067149       -0.93096631321815        1.76879234184295
C            4.17630672166724       -1.03918590422890        1.39123043099908
C            4.98869400526610       -1.86482958430577        2.38577078075882
C            6.45064180313357       -1.99097070340822        1.99816219812402
N            7.19131898833532       -2.80396624998358        2.94373455091511
C            8.11996978968504       -2.16246984023751        3.77567951625450
O            8.26528527502188       -0.95317467925416        3.74338857441066
C            8.91227469266590       -2.99991407687553        4.68266156223587
C            9.86073137542280       -2.44157084362373        5.50546376653426
C           10.62543099693238       -3.23543826796151        6.35866341716271
C           10.44956625206069       -4.58925276834996        6.39053357262222
C            9.48776980384803       -5.20809512441618        5.56323720562116
C            9.27238056681652       -6.59831913379055        5.56944737107550
C            8.29988014498597       -7.17706107682758        4.78285872249522
N            8.06493057783075       -8.55436892609236        4.81844644364290
C            7.86848514176902       -9.25803628838706        5.87478112092407
C            7.69483266615236       -8.77369651821921        7.22718005398961
C            8.02067007867753       -9.59684800465702        8.31088462455623
C            7.89602712947218       -9.14676850049367        9.60013334124317
C            7.42990587560063       -7.85943199164062        9.86836333005875
N            7.33149338009738       -7.38070006207509       11.21069283306386
C            8.25612280994769       -7.83342165804865       12.21125889359606
C            7.83240880140017       -8.06057254983993       13.51803460138312
C            8.71884470399594       -8.49021435952304       14.47920740974894
C           10.04468391443161       -8.69889986101543       14.15404909280519
C           10.48154813888035       -8.47430727879529       12.86344091080347
C            9.59710170497112       -8.04480868681386       11.90041432123881
C            6.31984113458739       -6.42649026008749       11.56736942298785
C            6.60506074793270       -5.38335849733203       12.44447968156484
C            5.63277119559746       -4.47357342294444       12.79237722116974
C            4.35857772540577       -4.58939559408686       12.27264058069380
C            4.05970238877455       -5.61922003161518       11.40242397706285
C            5.03035522843548       -6.52976417494306       11.05204570532960
C            7.07050694342818       -7.04851422814859        8.79178084574972
C            7.19501445692023       -7.49694733094911        7.50236198077539
C            7.53859709432208       -6.36222252885731        3.92917396599934
C            7.72755624104985       -5.00694669223847        3.87654259605396
C            8.70683725473390       -4.40043430637065        4.70415155088848
C            6.92509757290667       -4.17974675158580        2.97091136219123
O            6.05768586764341       -4.67290513483964        2.27176352525621
H           -0.15225050300693        0.58304862172108        0.42680389635006
H            0.30694350305964        0.48843161800826        2.12405999226800
H           -0.04806465227046       -0.98070758660810        1.22988854264547
H            2.32964073684625        0.88314401945859        0.66307805312036
H            1.97652588583267       -0.56949179044844       -0.23031477376642
H            2.27008155173852       -1.93531235012768        1.86267333568970
H            2.60736906307184       -0.48664063652053        2.76692378907020
H            4.61052986547168       -0.03597439797290        1.30523703594170
H            4.26863255624516       -1.47747981135593        0.39033038315744
H            4.56019406335005       -2.87040064906702        2.47692283078773
H            4.91626734640901       -1.42806344756499        3.38852816390952
H            6.92827510326882       -1.00690000254717        1.94413932025663
H            6.55142856417166       -2.45048922729819        1.00979733154023
H           10.00308926976027       -1.37490116145486        5.47407046441382
H           11.36192799690862       -2.77404539068105        6.99566270140101
H           11.04039252985665       -5.20051903809089        7.05034599865407
H            9.86094387511236       -7.22301117025246        6.21508279354160
H            7.85995848078084      -10.32564765025706        5.73089198549850
H            8.38978636949689      -10.58969715332860        8.11918092022203
H            8.15110066216456       -9.78795874810227       10.42539081174879
H            6.79667835651868       -7.90285780697185       13.76282110447219
H            8.37753327851538       -8.66513317940688       15.48627007879056
H           10.73775995357002       -9.03587032675909       14.90730041273317
H           11.51670855122162       -8.63383860495508       12.60985125620462
H            9.93381389186813       -7.85662789431512       10.89600890030160
H            7.60196809577656       -5.29511966636034       12.83941015133230
H            5.86699343496931       -3.66945373035381       13.47046631563931
H            3.59772875374750       -3.87700058144736       12.54622691810805
H            3.06507716987061       -5.71085280193158       10.99799007176075
H            4.80208348090521       -7.34018330178336       10.38216799136754
H            6.71019595427198       -6.05403088742227        8.98744706901448
H            6.90169741537933       -6.86297114515405        6.68489464651137
H            6.79034115623261       -6.81050664639216        3.30158833205824
