69
 energy: -13.677587702185 gnorm: 0.000842554704 xtb: 6.6.1 (8d0f1dd)
C            2.20229407340892        0.90195659526617        1.30694455205256
C            3.53171322476689        0.16982545320179        1.21745225631747
C            3.69558391156880       -0.59995205026493       -0.09317803000772
C            5.02705914132049       -1.34328492945482       -0.19146485451482
C            5.17903577436947       -2.11442929510150       -1.49997601475626
C            6.49875323053419       -2.85497048344032       -1.61473891299017
N            6.58814028678579       -3.56357038935693       -2.87564128034182
C            7.10066453571780       -2.86813920825211       -3.97947222070155
O            7.49328887412269       -1.71989959660089       -3.87327397250942
C            7.13645061424982       -3.57045221146474       -5.26759393540907
C            7.64766778476252       -2.95949445300603       -6.38599550047519
C            7.67532470238883       -3.61975045352675       -7.61388941357813
C            7.18937353456982       -4.89004603250529       -7.72940617304093
C            6.65229190720814       -5.55816502550869       -6.60792282068325
C            6.14307684832457       -6.86772122456228       -6.68477295506067
C            5.64447792578847       -7.50870055653239       -5.57271853625576
N            5.17379244099598       -8.82312606468208       -5.65017362056028
C            5.83883484995694       -9.82672397395039       -6.09279826677910
C            7.23890652782957       -9.84499333989954       -6.46804764510896
C            8.17721181460960       -8.97451787500471       -5.86298184609359
C            9.49747815939056       -8.96858288408341       -6.21853625304445
C            9.93143676154602       -9.85901246333358       -7.20529171055104
C            9.01856878123724      -10.74664727746293       -7.80732359773422
C            7.67873540181075      -10.74471982858893       -7.43353683770871
C            9.75058699805821      -11.50933232904290       -8.79067510453202
C            9.36302583844222      -12.50625934733470       -9.68684975042457
C           10.30713500299053      -13.03210043303654      -10.53437773105612
C           11.63054898997262      -12.58115067052248      -10.50743686440291
C           12.02862777076264      -11.60279570274667       -9.63134413523305
C           11.08355408422701      -11.05961572448515       -8.75848813613486
N           11.18946467866576      -10.06267388656099       -7.77779044505607
C           12.38873222997473       -9.26287870189606       -7.50055622920469
C           12.42345226963741       -8.00171173068366       -8.33367070544925
C            5.61932679051376       -6.82751844150624       -4.34437378094103
C            6.09723624925221       -5.55044027999583       -4.22579806043446
C            6.63052196994552       -4.88977072213086       -5.36224763614447
C            6.05822833734770       -4.85922577057941       -2.93307642149886
O            5.57551319677966       -5.39018677238218       -1.94868594674293
H            2.09602143661941        1.44673978865591        2.24759181510863
H            1.36363516888189        0.20729505687570        1.23382389137139
H            2.09385463791072        1.62353181380254        0.49544751142627
H            3.63798045689692       -0.52469604809011        2.06101044183567
H            4.36231088906765        0.87940574242459        1.32729500942635
H            3.59650231061076        0.08970702873699       -0.93981039564883
H            2.86909182071129       -1.31133068770194       -0.20742465659959
H            5.12911780064357       -2.03247527013405        0.65525754401022
H            5.85551962235404       -0.63303564898771       -0.08475441895541
H            5.07986181941975       -1.43085645443187       -2.35169559240661
H            4.35762985293526       -2.83259194106934       -1.61000886806081
H            6.61254534819187       -3.58305741562479       -0.80499114807407
H            7.34457860030247       -2.16264743719348       -1.55113364181061
H            8.02592373138511       -1.95573517571813       -6.29440240794493
H            8.08182099846758       -3.11918055494562       -8.47710993059196
H            7.21045162673818       -5.39755377619133       -8.67805274043004
H            6.15745078859814       -7.38862836295124       -7.62381353242491
H            5.28229875119171      -10.74019951696250       -6.22116046563521
H            7.83343666011958       -8.30463846775073       -5.09540249867950
H           10.19787274557993       -8.29648182499051       -5.75622147108906
H            6.98776088637201      -11.41893317631969       -7.90478112552786
H            8.34200971454237      -12.84399749673254       -9.70498807502291
H           10.02432362586946      -13.80191361031976      -11.23345923534589
H           12.34845807250833      -13.00922537144037      -11.18749630011375
H           13.04447385647441      -11.25136487305133       -9.60992645814813
H           13.26890162006135       -9.88669335492982       -7.68742052151059
H           12.40551162021499       -9.03221268491492       -6.43026013705071
H           12.41584563840344       -8.23904007061093       -9.39867714607968
H           13.31054124462213       -7.39806225966078       -8.13169054678396
H           11.54652167485769       -7.38236714145733       -8.13847888618145
H            5.21867146542807       -7.31921272733565       -3.47681747630552
