55
 energy: -10.916437728760 gnorm: 0.000502993591 xtb: 6.6.1 (8d0f1dd)
C            0.51828115213236        0.51441625725587        0.09272350318973
C            1.94346099921941        0.12908327267615        0.45397026397156
C            2.65844338471556        1.20125596107569        1.27697735415577
C            4.09673532294750        0.82336537500180        1.62650493124244
C            4.82342344595906        1.90170770387237        2.42668069663001
C            6.26840320495500        1.54468233736185        2.72600386754183
N            6.95516913102576        2.60537964872077        3.43960312459724
C            7.17661669999554        3.81395851761761        2.76468611982027
O            6.75235407257625        3.99496778874705        1.63776136687405
C            7.93915076394705        4.85508071943945        3.46454013774667
C            8.21449862699153        6.05293564816718        2.85309662055830
C            8.95487413748081        7.03724139431800        3.50699568209369
C            9.42642079893953        6.82613756349684        4.76989858120095
C            9.16832274773495        5.61041811691888        5.43881558591424
C            9.64121302921373        5.35211643434148        6.73682573705632
C            9.35961033461136        4.16850628910106        7.37863996510721
N            9.84882842591637        3.91043753183253        8.65820880100699
C            9.59646952131423        4.57257174817890        9.73259474117812
C            8.73360679114173        5.69497748768942        9.90489977019521
N            8.41516754508276        6.10044514327926       11.10886581603466
C            7.52950808182144        7.15576944342209       11.09278085243312
C            6.99024292756532        7.78479744287208       12.22332108663242
C            6.10677194820942        8.82142894790582       12.06162634182667
C            5.74004717310052        9.25290385804708       10.78828878796569
C            6.25967097057100        8.64783726644079        9.66913579557231
C            7.15611468179495        7.60071488786414        9.82073386476345
S            7.99127646834596        6.66908363653165        8.61945403723570
C            8.60394340606930        3.19022520747105        6.70946409821445
C            8.13537097809211        3.39420137857736        5.44085887446676
C            8.40876393553318        4.61802383376362        4.77885291378857
C            7.37073433829230        2.34847223640654        4.75278925573178
O            7.11429432490989        1.29319979693531        5.30300938248516
H            0.02122743114019       -0.25945779536586       -0.49579683877440
H            0.49514191328836        1.43610669697488       -0.49089099183818
H           -0.08319438322706        0.68421388084671        0.98711462112638
H            2.52156540143124       -0.07233626532576       -0.45718756666021
H            1.94983484150121       -0.81781474334212        1.00913939898917
H            2.09495617892534        1.39852234059166        2.19642980546836
H            2.65168253908973        2.15052710445329        0.72847561309911
H            4.65417906074802        0.61549254226134        0.70555832911128
H            4.10655590778253       -0.11945498270501        2.18589540368639
H            4.29478466923603        2.09859807979720        3.36632217116575
H            4.80258805891969        2.85154390878472        1.87875660443133
H            6.81947122198061        1.35519799023362        1.79959549180099
H            6.32976983191766        0.63124709229814        3.32712316515662
H            7.84993211638931        6.21342669970277        1.85292447391610
H            9.15804023209140        7.96953378406722        3.00652276795365
H            9.99933127119489        7.58595975738980        5.27226224243917
H           10.23718815227112        6.08948739324914        7.24246885306281
H           10.04225005296654        4.18155219895668       10.63186504427197
H            7.27863028310828        7.43989738858302       13.20017939050318
H            5.69027060968514        9.30732859727681       12.92843648436750
H            5.04440477550179       10.06863339721289       10.68153161458968
H            5.98670392000697        8.97380155494798        8.68055055267724
H            8.39638654384988        2.25677050379907        7.20010541224815
