111
 energy: -19.526534077080 gnorm: 0.000327408982 xtb: 6.6.1 (8d0f1dd)
C            1.75273179784891        1.21624388695242        2.66796648524384
C            3.11026396596503        0.88042493734604        2.07168823265282
C            3.71009598496288        2.04160783294939        1.27897033273845
C            5.07226725617555        1.71216262282315        0.66955421271433
C            5.65753784613331        2.87480941685761       -0.12736269374726
C            7.00740160256680        2.55900838133172       -0.75713960024334
N            7.53431835783167        3.68164489087314       -1.50374978604971
C            8.88580257890441        3.97770531434084       -1.52189440318001
O            9.70583809367182        3.23845937919256       -0.99560778828712
C            9.29770981637988        5.20758534534259       -2.20630630647541
S           10.78519908031469        5.36450697765481       -3.08163648843028
C           10.40604846722425        6.98177653670139       -3.60983564590281
C           11.22757277707239        7.77964106478309       -4.47977009820912
C           12.46286683465487        7.43385022659024       -4.95622627127483
C           13.03498517684104        8.39534351940853       -5.81742024873197
C           12.24734273567336        9.49786382373887       -6.02301632598476
C           12.55448859728542       10.61796844288206       -6.87360852282949
C           13.69609467284325       10.78722805208855       -7.60578109966186
C           13.72371770373267       11.97941860669068       -8.38515975966276
C           14.88495218710089       12.37829461771058       -9.21445617739950
C           15.46414667038877       13.63384705061523       -9.06396063046421
C           16.50412910840359       14.03117144983150       -9.87323673632408
C           17.00602436702270       13.19644639534743      -10.86295824964338
C           18.14990994433056       13.69036416915859      -11.76213413408451
C           17.69118316074051       14.95001903844167      -12.52023924418122
C           19.37440756533127       14.02613568683143      -10.89083763069660
C           18.56537164300160       12.62584489091997      -12.79587604384276
C           16.43324307471301       11.93750434516654      -11.00244886481019
C           15.39449196233766       11.53222311832199      -10.19326210459900
C           12.56755769255810       12.72362255134503       -8.26128840883283
C           12.24406566519028       13.96433966436330       -8.97224676282778
O           11.57039126000466       14.83777142901026       -8.44332195760424
N           12.71274953836284       14.10757910735829      -10.26623393089121
C           12.52550975043016       15.33671381336583      -11.00843187962047
C           13.81912692736867       15.82904496886494      -11.64087320554064
C           13.64707964113374       17.12019062825128      -12.43727511871060
C           14.94567008191729       17.59128748477421      -13.09023825162094
C           14.78031068956242       18.88035081203368      -13.89499893586702
C           16.07503291268228       19.33206286320613      -14.55144896891720
S           11.49202343631169       11.97520874748565       -7.12821951037661
S           10.77560409566674        9.34570052038026       -5.09927791796668
C            9.20950520263716        7.37084705057896       -3.07982320102541
C            8.57889893474017        6.38512726477637       -2.26878828619054
C            7.30141514400382        6.61373395491388       -1.55375701905350
C            6.14866196735157        6.98517527675532       -2.23679385253822
C            4.94800395634697        7.10313932616279       -1.57209357855539
C            4.85019081772129        6.86266776108454       -0.20706836129225
C            3.48400437865733        6.95985639381783        0.48919169619659
C            2.92845985991778        8.38657778293274        0.32642173547718
C            2.51595390177731        5.94773502980908       -0.15140588581965
C            3.58566919570901        6.64525405610335        1.99461235308448
C            6.00976903580111        6.51711301485318        0.47576234937787
C            7.21196366108952        6.39297652613656       -0.18318325598040
H            1.33318161428498        0.37961710103818        3.23109732876941
H            1.03446836208471        1.48106697814420        1.88979980004958
H            1.81968339715897        2.06839579137950        3.34684160216758
H            3.02975112082576        0.00019246005831        1.42016279061161
H            3.80921701437803        0.58316313766312        2.86462977288687
H            3.79953230940011        2.92254732792227        1.92615532764899
H            3.01529488545803        2.34133064185249        0.48501495701454
H            4.98430150479379        0.83020419321700        0.02369848580586
H            5.77151915801495        1.41804777157823        1.46150589314304
H            5.75729633200605        3.75417619215987        0.51920171438849
H            4.95305165479679        3.17737605724105       -0.91111234311649
H            6.93600561987393        1.69527894694799       -1.42672427421263
H            7.74170072293373        2.29074313542388        0.01053790523497
H            6.84771293754432        4.30797256066383       -1.92804936052417
H           12.94364584168759        6.50259981205239       -4.69962138533996
H           13.99853829063514        8.26588184221322       -6.28494007764044
H           14.51345862195966       10.08507600917120       -7.59929553556073
H           15.07227529868708       14.29980040853042       -8.31424352580139
H           16.92997659604056       15.01067070299094       -9.74195621030717
H           17.43084156699697       15.75314674627281      -11.83242166070456
H           16.81484181677608       14.73277741701114      -13.12995936895901
H           18.47750194161215       15.31775629009604      -13.17874318472669
H           19.14915339386953       14.81902354012995      -10.17912493480302
H           20.21081199108594       14.35823240887967      -11.50511449292669
H           19.69635088813448       13.15145737380532      -10.32656712190147
H           17.73350862738509       12.37006467004054      -13.45138820997077
H           18.91296920896982       11.71718689660242      -12.30540747475994
H           19.37755732589888       12.99274223989142      -13.42289066348497
H           16.79827508552841       11.26328963825692      -11.75651017297167
H           14.95105751272260       10.55983771259798      -10.32270557958801
H           13.30287640841737       13.39548102247005      -10.70127662326165
H           12.12248316607038       16.08688502660976      -10.31869132539246
H           11.75394680434026       15.17628510402721      -11.76922513531514
H           14.22752964017404       15.04512209012559      -12.28944282831492
H           14.57294751538788       15.97199965688850      -10.85804755231902
H           13.25438126519214       17.90774759355612      -11.78288869869263
H           12.87827805103857       16.97830813104120      -13.20641028836823
H           15.33693465329003       16.80050022989048      -13.74163654652867
H           15.71416376902525       17.73346357913373      -12.32079926949898
H           14.39240190125053       19.67059847193927      -13.23872147725451
H           14.00143816608523       18.73559772954713      -14.65536628201114
H           16.85246730750278       19.51385140125628      -13.80711272658318
H           15.94585605969677       20.25354306251137      -15.12351479949152
H           16.45676937804357       18.57185793641991      -15.23553167217314
H            8.77970965158386        8.34309936367896       -3.25678206983522
H            6.20317154758533        7.15513183723161       -3.29837871935054
H            4.06543847011173        7.37756435031887       -2.12325242573310
H            2.78377000419180        8.63828948683114       -0.72315374572896
H            3.61399232971334        9.11733394931487        0.75439475435392
H            1.96745419445560        8.49051550080885        0.82928188232940
H            2.36970123595243        6.15474441685933       -1.21048647445383
H            1.54032322187470        5.98065389450296        0.33256552741220
H            2.90391990986240        4.93393638774149       -0.05958591415830
H            4.24613762383225        7.34985657440628        2.49893877398841
H            3.96272531017354        5.63655294854873        2.16026898194603
H            2.60760307676995        6.71257104780067        2.47024491060611
H            5.97523455733324        6.32923024675846        1.53399596963115
H            8.09807336323759        6.09823690678123        0.35273952047293
