90
 energy: -15.927579579471 gnorm: 0.000821964349 xtb: 6.6.1 (8d0f1dd)
C            0.08085323482332       -0.56576639549527        2.15397497653156
C            1.57598225030302       -0.49815452840453        1.88869646157154
C            2.25234716776855        0.67353492436176        2.60087492355622
C            3.75343737233770        0.75325302491360        2.32740574565277
C            4.42839129241978        1.92589685148698        3.03442724960193
C            5.91835702852972        2.01921248222950        2.73846668606402
O            6.52184794882521        3.12216037532472        3.36847932991514
C            7.82161343728671        3.22650244073740        2.95973051901472
O            8.34700779783296        2.46179333454356        2.16588903739536
C            8.58375660453259        4.33567568658022        3.51761211584435
C            9.84853084235876        4.56741551688991        3.14326410242691
C           10.65431369463097        5.65645926314103        3.61406118180036
C           11.94973794645855        5.95118409000025        3.16498878956304
C           12.38115050661982        7.10864542661131        3.82224601600753
C           13.57267677755979        7.84307806856962        3.68555457452761
C           14.63498249674541        7.44041149167538        2.73425589603528
C           14.43282225366082        7.56727370484765        1.34551731986901
C           13.15756634329566        8.11349080327511        0.80286802100982
C           15.43041278747406        7.16781177721816        0.47715953574705
C           16.63509355993393        6.65881512198858        0.93563316285963
C           17.70737702504687        6.26779997063414       -0.01968671582674
C           16.83480011529565        6.55882221259564        2.30341000774278
C           15.85727912817749        6.92509961092261        3.20878284818781
C           16.10980422955545        6.78490956682274        4.66998366289267
C           13.67930821235300        9.00185952500078        4.47538094707056
C           14.68805279670415        9.96991649484088        4.53206552069444
C           14.29565425226552       10.94933024308797        5.45705063710501
C           15.01383153075096       12.14198117060056        5.80326855513557
C           16.18017145364696       12.50600447695357        5.25374309443204
C           16.85158349998745       13.74454575357743        5.62350301157046
O           16.37460556788715       14.46853457800780        6.48296379721012
O           18.00808540762641       14.02355735448016        4.95015652596961
C           18.52874553579512       15.25084675752260        5.39846955900383
C           19.75635308622163       15.68384562643387        4.60959838286490
C           20.31631971276671       17.02797751990410        5.06837977146762
C           21.53256217704168       17.47659870963518        4.25963034087107
C           22.08748238030828       18.82734113845187        4.71251782815300
C           23.28658404910085       19.27670520861163        3.89358625295060
C           13.02523787709633       10.56952615320403        5.97535502741478
N           12.69422688670470        9.43368498207713        5.37803093777892
B           11.38452490935862        8.67658368430536        5.61632570634807
F           10.31557753243044        9.52119447078256        5.33029284868194
F           11.35692526261431        8.22583104560385        6.93323312670475
N           11.32685707436461        7.46876049268800        4.67688037344091
C           10.29567347904142        6.64186395409478        4.57766184692606
H           -0.38922869576768       -1.40715421778418        1.64066978365559
H           -0.42064853309520        0.34383843970407        1.81947270684972
H           -0.12650824491910       -0.67462036676510        3.21974261256517
H            1.76460438840010       -0.42341929710237        0.80989813642764
H            2.05710937760551       -1.43552014041510        2.19655915576576
H            2.07809836881976        0.59875131028416        3.68071492851190
H            1.77368142814699        1.61271846587253        2.29934129648679
H            3.92658503832187        0.82771957115416        1.24731551029003
H            4.23439915720705       -0.18455682986167        2.62934744798136
H            4.28013016961586        1.85120609856838        4.11719990248568
H            3.94792408172567        2.86654544390445        2.74381304538324
H            6.10165904415346        2.11737163583585        1.66058487303010
H            6.45076297672877        1.11949693045407        3.07194746918235
H            8.09252271238513        4.98070852403447        4.22066213375355
H           10.28569506140657        3.89914370200206        2.42209595480922
H           12.50435234504158        5.40190585368011        2.42513909548949
H           12.66212126960302        8.75884351801407        1.52885964715802
H           12.46900632275983        7.30863869508368        0.54434241357859
H           13.33529123100634        8.70606014397885       -0.09500546600231
H           15.27050465534067        7.26013820769129       -0.58237668781975
H           17.28573106723998        5.92168346471349       -0.96394931780734
H           18.31909807502610        5.46062818957917        0.38458986273269
H           18.36250706709477        7.11296769107067       -0.23302936711188
H           17.77254715633255        6.17955800504308        2.66871011877964
H           16.77695946335897        5.94730466799462        4.87554599010255
H           15.18215721577274        6.60722785135327        5.21502676774391
H           16.56855904019780        7.68799700076499        5.07331047994415
H           15.59210851076601        9.96242809968823        3.95023465868495
H           14.58003412767660       12.79455790142570        6.54061160251925
H           16.64507331311554       11.89365516905013        4.50526257591896
H           18.75716681335903       15.14000788768322        6.46601917405827
H           17.72539223957985       15.99476140171133        5.31979478432170
H           19.49941600890396       15.72785904348418        3.54557002183358
H           20.52588776630597       14.90802180866647        4.68627179183444
H           20.57889620884287       16.97383138806980        6.13144572207427
H           19.53220129028820       17.79183047002422        5.00692294751554
H           21.26883824265776       17.52569350067730        3.19653507297553
H           22.31870762117348       16.71501137974914        4.32310257067782
H           22.35541878022574       18.77087550145019        5.77550624032292
H           21.29142942176652       19.58136335964194        4.66042260224159
H           24.10267592097846       18.55538309522614        3.96006329891116
H           23.67322656660948       20.24166429827103        4.22787412264239
H           23.02887280208075       19.37455159671312        2.83773450622353
H           12.41794141724487       11.08729884143147        6.69771209048893
H            9.37763718341693        6.73360853683546        5.13145818287874
