108
 energy: -20.939792407981 gnorm: 0.000433476651 xtb: 6.6.1 (8d0f1dd)
C            0.82180591883041        1.37806065877712       -1.88539182953079
C            2.33858463111784        1.33298365136968       -1.97381423441580
C            3.01567077100295        2.39095238868238       -1.10162008609662
C            4.54078305283017        2.32506830145974       -1.16125059678579
C            5.22277826493591        3.35462001734719       -0.26254367745631
C            6.73781439160400        3.23457422279952       -0.28430229227029
O            7.36464338001502        4.15897148010734        0.59700804676235
C            8.76304035940798        4.15360850093762        0.53567460235923
C            9.49386092105384        3.21677307923278       -0.17806646931136
C           10.88271903212593        3.23714301115357       -0.26904858096165
C           11.58665977081335        2.16529097625066       -0.94069636003693
C           11.26020191258633        1.45121165261828       -2.05033410561452
C           10.08199946710578        1.66891809895326       -2.90210339070171
O            9.26599818045834        2.54962276543163       -2.70096389846998
N            9.91361782800680        0.81364355158957       -3.98350532043540
C           10.78138742316469       -0.20372492215927       -4.34336827822149
O           10.56194919599956       -0.91831682035979       -5.30387799675795
N           11.91358230974206       -0.36004213779084       -3.56269222493334
C           12.21793800248125        0.41764000723863       -2.45640236543873
O           13.25489506485755        0.25701385615686       -1.83535018642647
C           11.58805662953026        4.27132683929365        0.41075693106012
O           12.97778293512010        4.46816614329010        0.37888542500786
C           13.64276108861294        4.10056492592934       -0.83221837891745
C           14.83006054770482        4.99795516900161       -1.13936847730134
C           15.59859011051648        4.53702510504581       -2.37682925112683
C           16.84876848318104        5.36901179784411       -2.65750993433333
C           17.63348650401887        4.87183437738155       -3.87247523473004
C           18.89311005420161        5.68133501492397       -4.13416091660872
C           10.85087611576194        5.18408458527663        1.16992492523386
C            9.47247367941332        5.15318930085401        1.24388201633345
C            8.75743812749388        6.09732537403703        1.98895865560412
C            8.05281302238237        6.88208552602664        2.60774943119480
C            7.18051667730249        7.74997082525695        3.28612924786419
C            5.92969378068039        8.04520504332234        2.75163044185582
C            5.06129979853333        8.88030822310627        3.41142511441904
C            5.40435662561585        9.44781224773413        4.64115493070999
C            4.47961597759726       10.34771685018696        5.35966536946501
C            3.11464039703780       10.08950105774335        5.41769019157870
C            2.15629236117488       11.12283671628290        5.86519838954226
C            1.09396754871003       10.78793480101635        6.70694114674798
C            0.19413346064576       11.74283608801982        7.12240136504205
C            0.32887653388419       13.05109184942412        6.70289095973073
C            1.36523788870349       13.40124336562720        5.86100560583322
C            2.26671935201553       12.44942593671078        5.44265779631228
C            2.56517925853638        8.76759567583788        5.04617754790002
C            1.39261595279926        8.67179778773167        4.29444437315873
C            0.87121972360155        7.44457552395801        3.95337365440436
C            1.50288175851903        6.28607606881506        4.35922080496834
C            2.65721706959400        6.35841831559073        5.11266712492403
C            3.18133261517218        7.58332447512841        5.45681171262873
C            5.06281083866999       11.53456849828271        6.02334762336981
C            4.67908475239448       11.90635409481309        7.31341072568378
C            5.23531200821228       13.00600974309150        7.92586201703263
C            6.19147231833021       13.75453853622712        7.26949447047497
C            6.59283439525087       13.39753174901143        5.99783339058359
C            6.03840177100616       12.29900556819071        5.38127824924702
C            6.66660077452503        9.15968316968015        5.16567033463420
C            7.53453695708321        8.32517492277970        4.50322083881234
H            0.35169773715311        0.61722051674783       -2.51194397641666
H            0.43658536261516        2.34856818537741       -2.20230786432172
H            0.48154193319625        1.21542974600887       -0.86131942557418
H            2.66138864313367        1.46072908567120       -3.01521315964956
H            2.70304023780936        0.33870047113454       -1.68437651090124
H            2.68423333970495        2.27631784063396       -0.06272421880650
H            2.67671284836099        3.38986282486974       -1.40058800918265
H            4.87824881935014        2.45768452753684       -2.19613915425333
H            4.87416893417821        1.31867957213000       -0.88095034595983
H            4.87058293963070        3.24447431639800        0.76906625593296
H            4.93333903903668        4.36912106608289       -0.55784356135825
H            7.12589099588474        3.41444880061905       -1.29471254277370
H            7.03805837701069        2.22524095856980        0.01808199818218
H            8.98114115064887        2.42676256331242       -0.69063116635371
H           12.50860022979792        1.85878158993673       -0.47336617510547
H            9.10192568008158        0.95821647844324       -4.56328003113637
H           12.57145955917261       -1.07722386023405       -3.82526125943826
H           12.91823136641145        4.12837759617142       -1.65388927495450
H           13.99004713820943        3.06846855397836       -0.72217607152099
H           15.49671905016794        5.01752941818188       -0.26978133245071
H           14.48797826200570        6.03151581490337       -1.26324799143723
H           14.93623065534943        4.55494958193301       -3.25042714566043
H           15.88101687710672        3.48404303301879       -2.25772188631180
H           17.49872611147943        5.36375917450702       -1.77445822405550
H           16.56991390662039        6.41962050694938       -2.80056809571395
H           16.98232502926329        4.88831609402524       -4.75607468951734
H           17.88911550599548        3.81382181175245       -3.72915223292687
H           18.65734384950096        6.73147459771689       -4.31387643741144
H           19.44297579921206        5.31444328545299       -5.00335858136615
H           19.56998517927563        5.64501355074265       -3.27893611465061
H           11.38749381337213        5.95319030782013        1.69403051656979
H            5.65045924301160        7.60308933197757        1.81048885979982
H            4.10004703430547        9.10534073155648        2.98348533841365
H            0.99182829932781        9.76791634323800        7.03475317713159
H           -0.61694809403936       11.46897364447239        7.77690658828115
H           -0.37560328010549       13.79789994740007        7.03047041067996
H            1.46856107232868       14.42168422798014        5.53047736324563
H            3.07068037647056       12.72036531020400        4.78070450522466
H            0.90286910549559        9.57616890490394        3.97722944746070
H           -0.03193135406878        7.38777202767872        3.36828516710304
H            1.09368935386702        5.32602845133690        4.09052491041437
H            3.14908251963838        5.45434453647198        5.43194771057623
H            4.07790946802116        7.64072028256705        6.04917297742299
H            3.93822855345074       11.31816458207390        7.82645049183321
H            4.92415310300788       13.28268819092939        8.91977470568955
H            6.62617120914606       14.61537304818657        7.75042013864496
H            7.34202162491306       13.97985908996234        5.48710045047559
H            6.34886729747764       12.01951198602911        4.38936371772061
H            6.94867909934898        9.59457875211119        6.10882464008653
H            8.50069922614390        8.10204896843883        4.92226673462741
