48
 energy: -8.845255697006 gnorm: 0.000870680398 xtb: 6.6.1 (8d0f1dd)
C            1.02414107095328        0.09158182995125        0.13447821544248
C            0.23784413337103        1.15825490496827       -0.11291702422152
C           -1.20411160928139        1.17136229367339       -0.04650604279298
C           -1.89957560791394        2.34204773189718       -0.37875108881565
C           -3.26654149614592        2.39370066957813       -0.32695976348330
C           -4.01583750150830        1.27881232762560        0.06558680545160
N           -5.43306530227905        1.33379112238859        0.12826696821098
C           -6.16695421194698        2.23269712954157       -0.71192085521159
C           -7.29617110751733        2.89564995360930       -0.22893817406150
C           -8.00696176707734        3.75242083578652       -1.03515159733339
C           -7.61155024183493        3.96279935334226       -2.34129847226216
C           -6.50015980950977        3.31134144867973       -2.83855856988182
C           -5.78391190797081        2.45600443498559       -2.03529805192368
C           -6.15560057788020        0.50042625341253        1.04258990525855
C           -7.37947019343066       -0.06197081911614        0.67690359895871
C           -8.08345920289062       -0.84798631561331        1.55770052506777
C           -7.58550500449658       -1.08638128061291        2.82336481959312
C           -6.37857068585560       -0.53462727127234        3.20489269238505
C           -5.66935149733421        0.24977569561654        2.32658463741530
C           -3.32357884688857        0.10918142067305        0.39961196198328
C           -1.95642287915790        0.05491751172561        0.34413792128575
C            2.47151426263608        0.07990915854514        0.07577305492937
C            3.15667764443823       -1.12379806287292        0.26627284440543
C            4.53026973426958       -1.17335667367045        0.21588726440670
C            5.25658862284836       -0.02478578619324       -0.02270634795791
C            4.60204069425199        1.17560744369446       -0.20981403647542
C            3.22802277904971        1.23160366942975       -0.16159751754076
H            0.55720575813957       -0.84113057773466        0.39056355514582
H            0.70384574431954        2.08430734195335       -0.39319964742317
H           -1.34211157978850        3.21321542635430       -0.67631300138518
H           -3.78157509775071        3.30751340674196       -0.56416208840957
H           -7.59370480846309        2.73656169228784        0.79253039275259
H           -8.87333880624192        4.26246910857074       -0.64708695497026
H           -8.17111469185233        4.63344144382485       -2.97266223093305
H           -6.19677284178930        3.47077509282630       -3.86025479940148
H           -4.92959559644131        1.93100142083516       -2.42471046084749
H           -7.75844045912157        0.11897906556000       -0.31351991315133
H           -9.02479102096458       -1.28000255292551        1.26005918140268
H           -8.13987389960249       -1.70114854792144        3.51342000044822
H           -5.99426683241059       -0.71542232226983        4.19529787068635
H           -4.73966365183625        0.69950093676004        2.62739323632533
H           -3.88648390539107       -0.76253827955882        0.68226541807947
H           -1.45666817389433       -0.85928531365956        0.60746391935707
H            2.59440702764104       -2.02284436376483        0.45123637658203
H            5.04088467425916       -2.11103947962852        0.36285477634060
H            6.33300134294959       -0.06494552395564       -0.06170015434270
H            5.17050073481678        2.07297430513107       -0.39218439055756
H            2.73543659252378        2.17696874080090       -0.29951475853184
