38
 energy: -7.891566935003 gnorm: 0.000409766437 xtb: 6.6.1 (8d0f1dd)
C            1.09910206891593        0.13831709159640        0.24246117720178
C            0.26578057489614        1.10548297369675       -0.17885174668483
C           -1.18189175641083        1.06855429483355       -0.09116472367194
C           -1.93140522784143        2.11165960871049       -0.64668565691679
C           -3.30198172639146        2.11333706441433       -0.58263793033708
C           -3.99101189645397        1.07805193714164        0.05316088628920
N           -5.39664050933694        1.09504731696599        0.09952995417269
C           -6.26160668550442        0.39310406568291        0.97170757092035
C           -7.56723228138476        0.10483335669581        0.57451983198046
C           -8.43045035108326       -0.55469777392385        1.42023742023553
C           -8.01301197394710       -0.93058031645588        2.68247117688156
C           -6.72858199076228       -0.63789018037794        3.09839512587510
C           -5.86195414158888        0.01943646499363        2.25453767774236
C           -3.24747883498466        0.02787127131438        0.59568351198539
C           -1.87650992829141        0.02306360602341        0.52785324751543
C            2.55055048178587        0.18216058610232        0.15252274806531
C            3.29453485875346       -0.95726737598210        0.46934834960737
C            4.66973675869074       -0.95053972678201        0.39237403547040
C            5.33587685087504        0.19362786199452        0.00101456565720
C            4.62073350655529        1.33260069080605       -0.31168090163521
C            3.24496824435579        1.33041025881327       -0.23743541460753
H            0.67968548940474       -0.75402124358930        0.66938905097289
H            0.68699012569383        1.98226903151810       -0.63539189626804
H           -1.41611521438257        2.92209938126864       -1.13335836034748
H           -3.86467298763573        2.92316918040545       -1.01341400076636
H           -5.85369271169210        1.69530211627411       -0.58328757091665
H           -7.88778018394097        0.39857653344496       -0.40989109567945
H           -9.43441815185944       -0.77694616169843        1.09714115100490
H           -8.69056156935613       -1.44546980541223        3.34392434779967
H           -6.40706329193525       -0.91787066027121        4.08845933537886
H           -4.87661580605573        0.28581330519362        2.59357335693875
H           -3.76696100559739       -0.80290478015235        1.03883168742081
H           -1.33143849543758       -0.79876018846852        0.95625982081915
H            2.77747711188005       -1.85168962870773        0.77285305266847
H            5.22705399708872       -1.84025312848883        0.63694897940566
H            6.41209614545414        0.19795093864366       -0.05914290621874
H            5.14100831044371        2.22722826182736       -0.61329903623584
H            2.70255219708253        2.22870377194260       -0.47259682172425
