54
 energy: -11.474679999564 gnorm: 0.000652869038 xtb: 6.6.1 (8d0f1dd)
C            1.14650196197407        0.06503937422666        0.31525229735343
C            0.33989527231026        1.01927286888986       -0.18110713773875
C           -1.11227572857450        1.00356732165690       -0.13207856673161
C           -1.83625940812374       -0.00916565829958        0.54627075846679
C           -3.19568242515642       -0.00309653745378        0.58218705729867
C           -3.93423002046542        1.01854514720071       -0.05928057642063
C           -5.34498117337878        1.05387218863087       -0.04026096977692
C           -6.02340022559698        2.05550062938645       -0.67016763885277
C           -5.32959947916119        3.06642677137985       -1.34654771726826
C           -3.96740268240773        3.06327428319435       -1.38426920063925
C           -3.23124840933274        2.04009410749597       -0.74203271266645
C           -1.82256636014962        2.00667896324010       -0.75973545705593
C            2.59706476240767        0.07930485639834        0.27129002782649
C            3.31081929739848       -1.00619560169021        0.78955287196178
C            4.68276905157409       -1.02873542787163        0.76695926262517
C            5.40747130124330        0.03310470753880        0.22693727276830
N            6.83621396600605        0.00720967484629        0.20214837170994
C            7.53854415986277       -1.24158348743082        0.09697155352702
C            8.70716960786629       -1.46033888475278        0.82197920060448
C            9.38913280448518       -2.65121000963572        0.71238952328040
C            8.91816559946977       -3.64426893097438       -0.12443280607817
C            7.76168403343099       -3.44146666276630       -0.85212827998220
C            7.07757273908033       -2.25162151583174       -0.74373703141867
C            7.58974048039007        1.22806756777181        0.27341088664885
C            8.74171461459636        1.39439309590624       -0.49117866822492
C            9.47075784764525        2.55996164606170       -0.41890959778375
C            9.06433404763036        3.57977608552364        0.41944991345116
C            7.92581060401221        3.42857406411540        1.18701431023995
C            7.19495419961893        2.26387108701199        1.11635861049268
C            4.70031731338282        1.11868064053443       -0.28909406368735
C            3.32771905823353        1.14330316373280       -0.26877996759818
H            0.69937481389047       -0.79398620061038        0.77995095902355
H            0.78606402266511        1.86929352001576       -0.66313685301351
H           -1.30078189893593       -0.79538345363023        1.04720405182848
H           -3.72928380845506       -0.77960998955411        1.10280694754730
H           -5.87908601824477        0.27701937716469        0.47936179427137
H           -7.10085660490303        2.07201866635185       -0.64879539493738
H           -5.87987417068047        3.85116538232869       -1.83959274948396
H           -3.43461010663748        3.84054215500119       -1.90453062151473
H           -1.29167337844882        2.78428002876903       -1.27884427894413
H            2.76747310632942       -1.83398116694365        1.21237572658042
H            5.21868847203213       -1.86515851579841        1.18013708247147
H            9.06541627891817       -0.68379828943180        1.47511264141545
H           10.29168714523377       -2.80840670378556        1.28017876004960
H            9.45323941496839       -4.57592756471275       -0.21028637954084
H            7.39567796391079       -4.21447077444869       -1.50808014810961
H            6.18339177878786       -2.08177835404581       -1.31774648838495
H            9.04911224063125        0.59760354365279       -1.14578231732674
H           10.35936728627388        2.67660765855129       -1.01767732879204
H            9.63579922299037        4.49191309897601        0.47551160933833
H            7.61041463882582        4.22252354541700        1.84421672656200
H            6.31452057632056        2.13436124744899        1.72131723916846
H            5.25069894621392        1.93734513868433       -0.71872585512432
H            2.81064326804237        1.99456212256310       -0.67356664941406
