44
 energy: -9.277653540511 gnorm: 0.000411595614 xtb: 6.6.1 (8d0f1dd)
C            0.92323598495944        0.19509418015200        0.14764760039993
C            0.09531347696016        1.19040133833200       -0.21617801046244
C           -1.35575062361649        1.14233037918186       -0.15993410597099
C           -2.05353667259024        0.08731973575869        0.47989404651497
C           -3.41262152996355        0.06304961646089        0.52252911472251
C           -4.17596866378071        1.09410366902528       -0.07380326721387
C           -5.58717080405011        1.09812355110684       -0.04894015578105
C           -6.28961641454937        2.10947112053303       -0.63552689066495
C           -5.62085225980351        3.16178553647242       -1.27263719674575
C           -4.25918257030687        3.19013594470829       -1.31440485757122
C           -3.49851565853490        2.15835267433483       -0.71609343386903
C           -2.08976973364768        2.15661682392497       -0.74012662889855
C            2.37191869502394        0.24819472059904        0.09019201419008
C            3.11570921266527       -0.91871694183380        0.29953494843870
C            4.48659184211488       -0.90552656733734        0.24485588889215
C            5.18250891000451        0.27955853456247       -0.00589689369250
N            6.58606732364643        0.26958726899835       -0.08154791264555
C            7.48198815167979        1.35887829404831        0.03377171699069
C            8.72265397361074        1.31217658418847       -0.60206050215661
C            9.61088579795204        2.35776150900265       -0.48832088817497
C            9.28542457340046        3.46450497208911        0.27190234057428
C            8.06857942411158        3.51897158351833        0.92373678917336
C            7.17623451249083        2.47715587552654        0.80899387124561
C            4.44341794322455        1.44528362567939       -0.21889615006950
C            3.07206758632508        1.43169050796592       -0.17095052801359
H            0.49655397644226       -0.73085603089024        0.48707161453940
H            0.52232960866297        2.09579466720082       -0.60687223793316
H           -1.49698081371681       -0.70282868564670        0.95121046622341
H           -3.92670452761524       -0.74437707625533        1.01493550121027
H           -6.10231057320673        0.28954269780515        0.44047446351225
H           -7.36708529964538        2.10148065196504       -0.61046306615234
H           -6.18990377412116        3.95326432113897       -1.73245974356214
H           -3.74545591667313        3.99899403036923       -1.80482052340923
H           -1.57780031770916        2.96565812224084       -1.22933377517625
H            2.59513000135165       -1.83966517303152        0.49965649621460
H            5.04494857724979       -1.81147623869022        0.40444951036485
H            7.01437562156668       -0.63869236790843       -0.24635363630176
H            8.97070151680837        0.44947321326210       -1.19555921774510
H           10.56181676091847        2.31301017023620       -0.99377041518697
H            9.98248139734904        4.28169000629160        0.36119103869912
H            7.82010516956741        4.37561497244496        1.52889484404081
H            6.24584647135500        2.50046605288489        1.34829318887496
H            4.96393702056992        2.35550678059876       -0.45752389929067
H            2.53035262352418        2.34704534898423       -0.32877151813948
