42
 energy: -8.992719609731 gnorm: 0.000667096697 xtb: 6.6.1 (8d0f1dd)
C            1.19685297470087       -0.12863088122659        0.52762402799232
C            0.42032440723545        0.89607956106784        0.13890136042117
C           -1.02907967814820        0.87573904735770        0.07362717034904
C           -1.79989027277012       -0.22450144144109        0.51199516182698
C           -3.16093856551429       -0.19675677597236        0.45274647014157
C           -3.84661572212270        0.92390543076799       -0.05966916089579
N           -5.19373293804879        0.95777452667373       -0.06272533318537
C           -5.71304292885676        2.06763958345168       -0.51047408281431
N           -5.13121432173209        3.15517373627181       -0.99889283194690
C           -3.81071395301074        3.12032717769281       -1.05914426914769
N           -3.15563316547826        4.21782174626746       -1.64065992575277
C           -1.99867130435224        4.24788776645361       -2.45913358951794
C           -1.26852027340780        5.42711238369474       -2.59624828221706
C           -0.15106850174957        5.46969280346403       -3.39827495246201
C            0.25266345695545        4.34195766200522       -4.08699201050240
C           -0.47149327028397        3.17079035762158       -3.97734058693172
C           -1.58952262032388        3.12482362450909       -3.17718314205337
C           -3.09220178228039        2.01015136453059       -0.53814040753595
C           -1.69511873086389        1.97445697206135       -0.43200807850973
C            2.64942593034979       -0.10519917238861        0.59310258589670
C            3.34257026014395       -1.28089904690987        0.89000695291376
C            4.71757773500559       -1.29459645923024        0.96292857994109
C            5.43381182501121       -0.13518016070636        0.74390375695767
C            4.76897729027513        1.03878390286504        0.45199725818453
C            3.39369426983961        1.05716709757850        0.37677480033361
H            0.72672747850451       -1.05367268643723        0.80524149941989
H            0.89210320054730        1.81104809007832       -0.16841686097213
H           -1.30688299627561       -1.09026595187306        0.91561895054949
H           -3.74343512162775       -1.02931137929152        0.80627637319074
H           -6.79334034930539        2.10401034602121       -0.49360004740393
H           -3.75082332514407        5.04313035549863       -1.69533061245444
H           -1.58643184818333        6.30078749801262       -2.05461073288432
H            0.40968543337807        6.38538922932657       -3.49011714511558
H            1.12769808421147        4.37795240317764       -4.71485955608903
H           -0.16266175083278        2.29344577904859       -4.52173472870213
H           -2.16957639964536        2.22190049381107       -3.10179659682726
H           -1.12792301558282        2.83083685278034       -0.74298614050346
H            2.78633904346359       -2.18684231210443        1.06054730516085
H            5.23541032626761       -2.21158624199422        1.19185214700597
H            6.50991639012315       -0.14664654737094        0.80235457429070
H            5.32836324115757        1.94477796915940        0.28488865113471
H            2.88980148836194        1.98127529569803        0.15755144872008
