51
 energy: -10.892104961832 gnorm: 0.000488390053 xtb: 6.6.1 (8d0f1dd)
C            1.14336178298360       -0.33997912445668        0.07164867188825
C            0.27251590308474       -1.24015807408841        0.55219493471201
C           -1.16341776690565       -1.24077975586417        0.30083223267003
C           -1.99169764756159       -2.07976326303835        1.04783482907604
C           -3.35241295960535       -2.10114371665029        0.83376341217026
C           -3.91562539817928       -1.29448263749559       -0.12963084736637
C           -3.12285033365275       -0.44661581341900       -0.90610126494034
C           -3.74744305339280        0.38284443797029       -1.92165255040188
C           -3.09910371755846        1.18211754857289       -2.79095522286702
C           -3.75118516928196        2.00333728654934       -3.80849186656796
C           -3.22605724911364        2.02823593953441       -5.13033101054410
C           -2.07697755706661        1.28264926385241       -5.49955312183967
C           -1.59504914410774        1.30844582422451       -6.77135814744135
C           -2.23111532594601        2.07394834373075       -7.76049118112961
C           -3.34161308090069        2.79469299983772       -7.45938881365250
C           -3.87606298639939        2.79314612169253       -6.14328911065857
C           -5.02452474506188        3.51534167133899       -5.83242577744507
C           -5.54784985616244        3.52682810789393       -4.54248672491305
C           -6.70621428903402        4.28779514297477       -4.23062138862305
C           -7.18664414099937        4.33662632337899       -2.96185847695140
C           -6.53515173530164        3.64034679419767       -1.93274837441412
C           -5.42950663909896        2.89301998653710       -2.19555670327189
C           -4.90438405832161        2.78224295066605       -3.50890521425172
C           -1.74837548375335       -0.43431468147846       -0.67233824894207
C            2.57514559804625       -0.34104966133831        0.32755253116355
C            3.23454863873499       -1.36511844315829        0.99588614750285
C            4.59015483547514       -1.28075356252533        1.19571452950289
N            5.35102719329245       -0.27525072924317        0.79488646060190
C            4.71955761471589        0.69566121422325        0.15563490136587
C            3.37131836266603        0.71365514640882       -0.10028924912845
H            0.77128416704175        0.46663565886581       -0.53308919370669
H            0.64104312848390       -2.02046871617808        1.19264371557930
H           -1.55455595514610       -2.71111104088389        1.80244159208097
H           -3.97810444595211       -2.75201918540480        1.42248187208792
H           -4.97927178420703       -1.31501385338544       -0.29509382870957
H           -4.81782891853895        0.31495518687728       -2.00377705852493
H           -2.02400449152939        1.19139075776362       -2.77195758517444
H           -1.58532267306312        0.67517933202657       -4.76108192942739
H           -0.71950009249308        0.73437507953845       -7.02714189800218
H           -1.83632105946400        2.08283054901462       -8.76327871073077
H           -3.83383411989816        3.37731294975423       -8.21895974627262
H           -5.51209658819240        4.08486969072596       -6.60284503236292
H           -7.19590826856476        4.83398055930938       -5.01842842693641
H           -8.06425791709684        4.92082555135245       -2.73809802106126
H           -6.91329372770004        3.70705145187999       -0.92569706185242
H           -4.92268337409846        2.40081905518436       -1.38556430094048
H           -1.12235419992399        0.20510751670333       -1.26324813986119
H            2.69123472469329       -2.22413542133308        1.34696032320172
H            5.09582291440779       -2.08054767898470        1.71542116197597
H            5.33013155742904        1.52069560498201       -0.17850632213220
H            2.92471353223105        1.53999131136721       -0.62636676451510
