60
 energy: -13.008060087462 gnorm: 0.000646230835 xtb: 6.6.1 (8d0f1dd)
C            1.27507993722946       -0.09385106845751       -0.86904406929300
C            0.44830548597025        0.83731802702295       -0.36221063314429
C           -0.97821536706508        0.91955551096521       -0.63764212792637
C           -1.67645367863923       -0.19552455302128       -1.06000335979624
C           -3.04589947643414       -0.15239300578301       -1.31241933850531
C           -3.74363920307152        1.00572832306421       -1.14662300133821
C           -3.09123524739617        2.18191724087516       -0.72025100204019
C           -3.80058125794256        3.39271254431039       -0.55399518198921
C           -3.16008929145452        4.52609885609647       -0.15590356825857
C           -1.78477058006209        4.50572925035430        0.09083108907431
C           -1.07137872201967        3.35357930134459       -0.05889669025636
C           -1.69753485668575        2.15198217958397       -0.46177477239554
C            2.69602099611157       -0.19494442725192       -0.59141690839981
C            3.47777745510934       -1.09477466262715       -1.32284621683836
C            4.82548426767171       -1.21244875591755       -1.09034723213070
C            5.44550708032008       -0.43810047550522       -0.11399611324056
C            6.87173096102691       -0.55257473328267        0.13689626233168
N            7.69753510022060       -1.37076254785546       -0.52563213056133
N            8.89061558372511       -1.21436877952360       -0.05205550778100
C            8.84067330746025       -0.29619688607385        0.91977212837359
C            9.98753588508611        0.15054827512489        1.69288340435156
C           11.25972632061866       -0.35420903615532        1.44197326787448
C           12.33664443639438        0.07807755395289        2.17571984511331
C           12.18633108260821        1.02757351027540        3.18793195108576
C           13.34735641461937        1.46986650592014        3.95188501644844
C           13.34392244103140        2.32562799007808        5.00948916862689
C           14.64650930204096        2.57616646649695        5.56524255668249
C           14.96695396442032        3.40266198637907        6.65583884637046
C           16.27547365765950        3.51867747174363        7.04819397467255
C           17.28536896659401        2.82678262648704        6.37757034125841
C           16.98798440727223        2.01430405044846        5.31070345275489
C           15.66597604419005        1.88695189107699        4.90317003903374
S           14.98657953194382        0.93917486808861        3.60316762959380
C           10.90561108871195        1.52911327036348        3.43347783163474
C            9.82779507694374        1.09806596927689        2.69852115930216
O            7.56569207416818        0.15084551718570        1.07114124019646
C            4.67489177306319        0.45459246777399        0.62352391961432
C            3.32687133440990        0.57551999136517        0.39101375859027
H            0.87493754024566       -0.80863622718617       -1.56493211971826
H            0.86287486305386        1.57848246817618        0.29368281087396
H           -1.15682570290491       -1.13069439714587       -1.17151996078257
H           -3.55610230551060       -1.04490734000860       -1.63612146829093
H           -4.80177139312127        1.03658545769381       -1.34138284566791
H           -4.85878608164252        3.40755011900191       -0.75081417824970
H           -3.71128679256559        5.44412104504079       -0.03456144343174
H           -1.28684716853740        5.41104144815432        0.39808498797543
H           -0.01134765395059        3.36661595383369        0.11806155840097
H            3.00919044859246       -1.69737729473583       -2.08187630586076
H            5.42262014562063       -1.90368022173103       -1.65937251153434
H           11.38322833851675       -1.08670117185018        0.66321370945158
H           13.31809328761177       -0.31459590464683        1.97629082193144
H           12.45392940703864        2.77825394710620        5.41201379319278
H           14.18320478095054        3.93251237625056        7.16827727107002
H           16.52882370874288        4.15070712332367        7.88344618145008
H           18.30789884676967        2.93147207963593        6.70101571994416
H           17.75829752651683        1.47556693055913        4.78664500852850
H           10.76320488810562        2.26493222728438        4.20465192558599
H            8.84181752738898        1.48664944796905        2.88769060583356
H            5.15857216974996        1.04784044894654        1.38052733027527
H            2.75053732352545        1.26456877012236        0.98158007996717
