96
 energy: -20.702348041850 gnorm: 0.000908602943 xtb: 6.6.1 (8d0f1dd)
C            1.59409516463199       -0.94418937963860       -0.82174141098471
C            0.73019642534100        0.04182303808356       -1.12562008824094
C           -0.69934426796720       -0.13848208578010       -1.32137177888566
C           -1.35416823620051       -1.21827345922587       -0.75981627933317
C           -2.71805294357712       -1.42906759125663       -0.94769759295497
C           -3.45335104249161       -0.56756242588077       -1.70499238698136
C           -2.84785909103178        0.55752079839880       -2.30318159847553
C           -3.59353639382107        1.44824350819736       -3.10764711376131
C           -2.99716103700913        2.52336024713226       -3.69289145176982
C           -1.63396933942095        2.76226018975499       -3.50066028708110
C           -0.88721951863901        1.92222164467333       -2.72853623932716
C           -1.46344564278309        0.79180229800829       -2.10706874657142
C            3.01578185873257       -0.77182636405770       -0.60146345199220
C            3.82246317753843       -1.89144377341353       -0.36642992318081
C            5.16817226588061       -1.76096418860754       -0.13477005348369
C            5.77279117994309       -0.50356353480161       -0.12472793017478
O            7.14330153651142       -0.38928574330395        0.13183925194337
C            7.67934879875415        0.91857928585884        0.17634430652142
C            7.54864183428151        1.69616435022008        1.34724752895280
C            7.95842714473946        2.98904766928728        1.38584014360186
C            8.52870889847834        3.60300922398795        0.24489912397730
C            8.94854437838817        4.94819379873450        0.25947922937483
C            9.49881600736209        5.51912453622980       -0.85108149594473
C            9.65325963781180        4.77501397073557       -2.02314393870983
C            9.25684107962119        3.47083557448853       -2.06847916649893
C            8.68510028551154        2.84721620283797       -0.94155553392181
C            8.27460708881052        1.47665236261169       -0.96864098743857
C            8.45150847430953        0.64540871255290       -2.17743786442942
C            7.65752315095447        0.88287709838418       -3.31220350052203
O            6.65644296569771        1.86947827160440       -3.27312126930550
C            5.35549895289377        1.49245238062054       -3.62647837942180
C            4.40841956359399        2.47295870499294       -3.92568663580571
C            3.12253434087817        2.13014209318752       -4.25668536001441
C            2.71851830451218        0.79077690547117       -4.29628734061272
C            1.34852406467318        0.46260582763506       -4.63340247860681
C            0.79235825756107       -0.75590829204114       -4.50727560632313
C           -0.59754713800964       -1.06812474363948       -4.79353568498099
C           -1.34842263796488       -0.24783337806998       -5.61422426890328
C           -2.69055396894158       -0.50608357300205       -5.88144477806636
C           -3.30995286162554       -1.58722182603378       -5.33015959061898
C           -2.60128424482380       -2.46623188200273       -4.48446768767227
C           -3.23584412289608       -3.58142645503059       -3.89242856067004
C           -2.54888114735420       -4.41480789998185       -3.06320694189882
C           -1.20066013760505       -4.17496430621518       -2.78613260276560
C           -0.55881582244541       -3.10833523292328       -3.34282738612033
C           -1.23205977176102       -2.21938061456978       -4.21114883124650
C            3.66806377050436       -0.18880588485257       -3.98771202203874
C            4.95315209722969        0.15500387615506       -3.65984998352462
C            7.85165129516847        0.10506410012553       -4.47429891752804
C            8.76745754219263       -0.89508689068653       -4.51334244151245
C            9.56265125193524       -1.19306731377244       -3.38137311787984
C           10.51473674063593       -2.23205430453303       -3.39699366886541
C           11.27398953224057       -2.49882560477476       -2.29511555575327
C           11.11649882232592       -1.74264982609257       -1.13132009220277
C           10.20433884360229       -0.72969742190136       -1.08589039297994
C            9.40273029672348       -0.42416085243204       -2.20409490091207
C            4.97356113959666        0.61443280688588       -0.37389919710386
C            3.62874797034557        0.48581355490512       -0.60394515705327
H            1.21915747125681       -1.94883568193776       -0.75152443536114
H            1.11728595746342        1.03583917456133       -1.24119610771793
H           -0.80066500088201       -1.90934809116387       -0.14903301300606
H           -3.19084277675254       -2.28744987110211       -0.49904922108031
H           -4.50406769845734       -0.74055070823467       -1.86229746873132
H           -4.64209538523007        1.25806237866994       -3.25946553460958
H           -3.57451648425036        3.19257240296409       -4.30950287425519
H           -1.17107496221489        3.61443413207319       -3.97122424243118
H            0.16296960493617        2.11667107638533       -2.60948865719415
H            3.37030019277750       -2.86847762482603       -0.36645243051064
H            5.78324941137259       -2.62378001123457        0.04896763792264
H            7.09575642284104        1.23796942502449        2.20846673489310
H            7.84362220006161        3.56864857623444        2.28545882397610
H            8.82826806364008        5.52176453080593        1.16242757281651
H            9.81482757527312        6.54917552270417       -0.82734643178028
H           10.08616438314587        5.23674468416608       -2.89552984156090
H            9.36758003288273        2.90181668104884       -2.97478721996478
H            4.71270528009435        3.50380220778802       -3.88880943250197
H            2.40326652778075        2.89840315840990       -4.48357857024465
H            0.72861351638911        1.27928892380971       -4.95469806211184
H            1.40496692925259       -1.55157124884942       -4.13050003208052
H           -0.88366616254620        0.60737781207426       -6.07179499017753
H           -3.24380187155108        0.15959583478845       -6.52364086038880
H           -4.35024333277505       -1.77902199380047       -5.52930344953806
H           -4.27641430173635       -3.75987939631195       -4.10226757827891
H           -3.04501475574812       -5.25904128132483       -2.61322833106369
H           -0.66826888333883       -4.83609111514174       -2.12176969239488
H            0.47239871934131       -2.93347829885364       -3.09697262103641
H            3.39030446049259       -1.22729258384814       -4.00612841188798
H            5.66350177421199       -0.60622984429992       -3.39180653378913
H            7.24660089363946        0.32443532733165       -5.33615495091796
H            8.89763581840919       -1.47810994510742       -5.40864250526304
H           10.63525457451018       -2.81483688663576       -4.29400054799006
H           11.99873685092530       -3.29616118495812       -2.31991695969798
H           11.71915894261912       -1.96381835032794       -0.26558678490621
H           10.07895849562447       -0.15389907815678       -0.18584598437040
H            5.43535728832137        1.58482142523168       -0.39924813831688
H            3.04273547259291        1.36706171980113       -0.79279077831267
