38
 energy: -8.135585872739 gnorm: 0.000270755593 xtb: 6.6.1 (8d0f1dd)
C            1.05973713821742        0.22081521977762        0.20161241218497
C            0.32188161991814       -0.88788294472441        0.37886751544784
C           -1.12590604093237       -0.95117033512777        0.41123827584877
C           -1.88774553813272        0.09142444069889       -0.08121147592704
C           -3.27944527568390        0.04510249719435       -0.08400970929192
C           -3.93669110089011       -1.04341798352004        0.40546182108734
C           -3.21934663413277       -2.14018085661411        0.92753711469874
C           -3.88816031270358       -3.27134553249732        1.44710727595153
C           -3.18776796738205       -4.31855708484452        1.96272250412987
C           -1.79134919222640       -4.28509988407007        1.98660522919025
C           -1.11552999625726       -3.20970186156295        1.49056778392180
C           -1.80214206226411       -2.10497393099316        0.93873425664705
C            2.49298498387789        0.16688187012808        0.17207906142928
N            3.18646920496683       -0.97151016860054        0.27290724977352
C            4.46309312368338       -0.62468364024455        0.20591956753287
C            4.57502671629335        0.76394519620217        0.06368688674751
C            5.80058925582657        1.55430462276672       -0.03488818939618
C            5.70951196106996        2.93976314892533       -0.09600801511953
C            6.84339911059780        3.71651509183151       -0.18388521487278
C            8.08785752583885        3.11989114878875       -0.21352486265305
C            8.19460338036666        1.74466192844019       -0.15580190185931
C            7.06214633472682        0.96569756881720       -0.06697488439704
O            3.30792516458479        1.26408894324691        0.04029103701387
H            0.59655053054439        1.18359884111257        0.10193336786786
H            0.86572947107071       -1.80679643817906        0.49728916771769
H           -1.39562117460556        0.95267523006730       -0.49670614975713
H           -3.83908667150891        0.87587698872905       -0.48174911079628
H           -5.01249654450123       -1.07750857484756        0.40072142813145
H           -4.96424820661339       -3.29238043219867        1.43249097970868
H           -3.70883978707084       -5.17498857041385        2.35836242756371
H           -1.24720743495982       -5.11634319409913        2.40446406719151
H           -0.04203374157528       -3.20030669585287        1.53665149691060
H            5.27811789583673       -1.32893173869936        0.26215225678263
H            4.73320732959456        3.39279216765902       -0.07160120883802
H            6.75905993001935        4.78992292187853       -0.22842527953829
H            8.97549197911887        3.72729377292216       -0.28118088036907
H            9.16648147668252        1.27953662433930       -0.18010399471202
H            7.14752354861634       -0.10575835644249       -0.02377230595482
