47
 energy: -9.952084362183 gnorm: 0.000652500241 xtb: 6.6.1 (8d0f1dd)
C            1.00336815264320        0.11011482184565        0.24892352761928
C            0.19870294148046        1.09662049620840       -0.17983343610273
C           -1.25419696155813        1.07953710531601       -0.12426213837599
C           -1.98206286060213        0.03472227331059        0.43099767271716
C           -3.35010684629030        0.11949917835651        0.43294081412426
C           -3.95134954471880        1.23060800182828       -0.11218452952230
N           -3.29778559368505        2.24663286853283       -0.65014949486269
C           -1.98228366187337        2.14830194062288       -0.64278355751698
C            2.45392201453840        0.12487670888468        0.20033046950826
C            3.16934793346825       -0.96841108297505        0.69938340010114
C            4.54132245062635       -0.98852002118804        0.67463971053968
C            5.26402853848129        0.08223891377653        0.14984870351683
N            6.69287835727024        0.06115876219230        0.12606680509586
C            7.39977041401190       -1.18430722417238        0.01317345828062
C            8.56500957777477       -1.40562304496494        0.74280299030315
C            9.24962160848524       -2.59445369794578        0.62847150534389
C            8.78543543797244       -3.58292472907467       -0.21735324967705
C            7.63290770568391       -3.37702309604611       -0.95043442115701
C            6.94621828993802       -2.18916810351291       -0.83755088841996
C            7.44266607248668        1.28388741201202        0.20445756276891
C            8.59232924032319        1.45964055135599       -0.56131842848353
C            9.31812463059643        2.62663782264631       -0.48171593845586
C            8.91081827386481        3.63881167685234        0.36529585847290
C            7.77455364293980        3.47825730653191        1.13416716511171
C            7.04695822445059        2.31208973038033        1.05621106300035
C            4.55499036714466        1.17317269801483       -0.35153766980252
C            3.18253873708057        1.19624599797175       -0.32721272386437
H            0.55401624594709       -0.77168949133487        0.66683075764159
H            0.64381725282618        1.97833726806252       -0.60210711643227
H           -1.48763936817321       -0.82243969152729        0.85217027948820
H           -3.94662474667597       -0.67278425490303        0.85472671423842
H           -5.02847938934696        1.30172598645057       -0.11294495842048
H           -1.44125969160104        2.97330940009403       -1.07776843016461
H            2.62738529518410       -1.80279395426394        1.11075932701801
H            5.07887496670741       -1.83023027540504        1.07477580228516
H            8.91791357756569       -0.63281456410349        1.40315941786644
H           10.14921833987929       -2.75390981135328        1.20025957968963
H            9.32242259075415       -4.51309943263928       -0.30656425372846
H            7.27264994558698       -4.14604078776542       -1.61413179390658
H            6.05564500125571       -2.01669756396893       -1.41640636866532
H            8.90052400085545        0.66895146065001       -1.22286136477346
H           10.20507297206904        2.75051270990793       -1.08138089346033
H            9.47980589784553        4.55204378299302        0.42700463560217
H            7.45858791072950        4.26632197848088        1.79807457984742
H            6.16857208280514        2.17535877497655        1.66250213962924
H            5.10362102994290        1.99721864032806       -0.77300024977188
H            2.66352894330894        2.04975655856070       -0.72451203424595
