37
 energy: -7.754143129214 gnorm: 0.000920690631 xtb: 6.6.1 (8d0f1dd)
C            0.91342089430641        0.19549405441683        0.13999810393609
C            0.07115183219705        1.22307723846724       -0.05963435521729
C           -1.37819890971703        1.14826006400868        0.03043215955824
C           -2.05536239943633        0.01472464723639        0.46177322055986
C           -3.42430512106462        0.05245838030727        0.51637215093255
C           -4.07575601250567        1.20557367217178        0.14452279566189
N           -3.47103953091221        2.30602661530468       -0.26996282764779
C           -2.15399537547449        2.25228294751529       -0.31566401775170
C            2.36022012397405        0.26415004481069        0.06098023606929
C            3.11438261999456       -0.90090085123182        0.23733564701018
C            4.48459728587158       -0.87511814092651        0.17538638830215
C            5.16941548370900        0.31983787861379       -0.05603178485162
N            6.57366845949370        0.31981183430042       -0.13381082859519
C            7.46988492470436        1.40362665133998        0.01719299864075
C            8.73352285601173        1.34679638394153       -0.56990968097206
C            9.62611879270288        2.38406257535382       -0.42110781531471
C            9.28146016690916        3.49392967235043        0.32519063102325
C            8.04138361197890        3.55829351964813        0.92986237812675
C            7.14567578697043        2.52364855903917        0.78185346990452
C            4.41977209573564        1.48263828621717       -0.24537326736539
C            3.04892320186443        1.45720215298027       -0.18552350112017
H            0.49899907524084       -0.76864580094457        0.37154744713655
H            0.47978110041151        2.18412663786809       -0.31160337489360
H           -1.52129892059296       -0.87095026076413        0.75577060116343
H           -3.98210615852669       -0.80748441358974        0.84917922500144
H           -5.15375039509427        1.24052578783519        0.18802332613710
H           -1.65146969642015        3.14439881875610       -0.65325505998203
H            2.60281409505458       -1.82976004188029        0.42325668798763
H            5.05097991261650       -1.77961264511213        0.31314133567436
H            7.00447987140467       -0.58438649516673       -0.31377275788807
H            8.99718107102236        0.48128819510005       -1.15216018889960
H           10.59601511819060        2.32979177367628       -0.88775604705634
H            9.98213744499543        4.30445039812376        0.44172799111088
H            7.77795971936100        4.41735344749851        1.52506353563895
H            6.19855871196509        2.55373923600069        1.29019293731217
H            4.93085234197274        2.40002217030340       -0.47657726502372
H            2.49936592108596        2.36952700643093       -0.33194049431156
