82
 energy: -17.551124180741 gnorm: 0.000450802655 xtb: 6.6.1 (8d0f1dd)
C            0.98671923661260        0.16964446370172        0.31665660838997
C            0.18214241371853        1.05796097223946       -0.29495105492985
C           -1.26193064426577        1.09642267057826       -0.21229283204313
C           -1.97754167773085        0.24548168345729        0.61537976941792
C           -3.33468444636778        0.36988971892397        0.64292341097866
N           -3.99059824229856        1.25412136978833       -0.07518609951644
C           -3.23140841633607        2.03250536238428       -0.85228642134891
C           -3.91021180142771        3.01228940154858       -1.66817918882684
C           -5.23866674765195        3.20151897242568       -1.61688476791204
C           -5.98768422474628        4.15759304390964       -2.40481466039946
C           -7.34435789771452        4.36389852884616       -2.13504960186019
C           -8.08090410947170        5.26392647209005       -2.86315089931615
C           -7.49765202422386        5.99193545512075       -3.89972251763204
N           -8.26546894212294        6.92737819245200       -4.66277779550169
C           -9.29610210430286        7.70176104214374       -4.03114827403428
C          -10.47666608161629        8.00108145386795       -4.70610421079064
C          -11.46084275301654        8.75010155314303       -4.10143296271433
C          -11.28430936515418        9.21461588263288       -2.81263649343455
C          -10.11838707213594        8.92701986166998       -2.13025366921788
C           -9.13299482887283        8.17801790087062       -2.73274858127127
C           -8.00038236635488        7.10228399570798       -6.06311789967998
C           -8.06209587490195        8.36438894265578       -6.64809289993061
C           -7.80838177142617        8.52868023693248       -7.99116853040463
C           -7.48963575312857        7.43660150765915       -8.77458699398975
C           -7.42564507521309        6.17797160269998       -8.20926627861031
C           -7.67835548664059        6.01126062581582       -6.86641313243335
C           -6.14673957999753        5.78423254312760       -4.17632745164713
C           -5.40598973392462        4.89016753016519       -3.44484513990804
N           -1.89939656167671        1.99991028753039       -0.95581993801995
C            2.43418499060694        0.17049057490272        0.24173224745630
C            3.15662454277263       -0.88598908870475        0.80671001237239
C            4.52798453211596       -0.90904745226132        0.76369018630690
C            5.24185220263183        0.12574674454439        0.16038404774533
N            6.67174854143382        0.11203458680827        0.12999660442300
C            7.38196677815675       -1.13129290352791        0.02499896056655
C            8.57209710701931       -1.33155326868843        0.71959877880281
C            9.25539658417702       -2.52192307144066        0.61382734509103
C            8.76371975247993       -3.53381064600114       -0.18753103400191
C            7.58518117103676       -3.35007423597068       -0.88405159201305
C            6.90025563105834       -2.16049173324045       -0.77994782406665
C            7.40653956630074        1.34276380291540        0.21661168745970
C            8.57135237536758        1.52976070887473       -0.52308905884356
C            9.27646639854401        2.70900097194404       -0.43685707240440
C            8.83244603081514        3.72263611809923        0.38977154793535
C            7.67986547065861        3.55173112617948        1.13142891270624
C            6.97334475613733        2.37331397141675        1.04712983439473
C            4.52624031258917        1.18151057560535       -0.40308024811555
C            3.15459435802567        1.20497077403842       -0.36564707813326
H            0.54069036820074       -0.61120934144803        0.90454481638831
H            0.62197529817377        1.81478859323796       -0.91671417696269
H           -1.47959683781940       -0.48305707812748        1.22918876484106
H           -3.92219127108867       -0.27363836864431        1.28001037294452
H           -3.30051015517930        3.60869011794064       -2.31989369872435
H           -5.79561621751459        2.59682411972659       -0.92372865681450
H           -7.80936786435204        3.80590270085606       -1.34047954255115
H           -9.12580518849936        5.40949861800171       -2.65193310757070
H          -10.61073132271510        7.63008670996098       -5.70715636749406
H          -12.37055508836006        8.97369704852534       -4.63433881961136
H          -12.05512624834053        9.80133733319984       -2.34028605493396
H           -9.97869018310110        9.29110200110013       -1.12550254630287
H           -8.21771590611887        7.95992464970669       -2.21075758413371
H           -8.30265613941227        9.21184746467543       -6.03032624702281
H           -7.85739186048802        9.51115156357567       -8.43148978116237
H           -7.29131781184641        7.56637648576546       -9.82593337850314
H           -7.17911431530294        5.32496298206194       -8.82014185534580
H           -7.63967583579691        5.03237914726333       -6.42133007225891
H           -5.68912357065170        6.34862760010849       -4.96989768407142
H           -4.36739948690666        4.74481896875096       -3.68217036687938
H            2.62047301555972       -1.68988990249855        1.28132050953521
H            5.07258169918741       -1.72165406870290        1.21160818103826
H            8.94578381591576       -0.54198186861500        1.34781100181897
H           10.17488933712131       -2.66448527781584        1.15767428078171
H            9.29941203154437       -4.46535120175712       -0.26980116773113
H            7.20209790424286       -4.13818313177725       -1.51150611976758
H            5.98771221138685       -2.00667355800692       -1.32892787267613
H            8.90744960019570        0.73902760568711       -1.17078097541687
H           10.17570389416567        2.84174359699642       -1.01591434094164
H            9.38492093022717        4.64559383078217        0.45638432769807
H            7.33365731379265        4.34128494483720        1.77822834609199
H            6.08086214422458        2.22961027401934        1.63075509843458
H            5.07010551171549        1.97944973432331       -0.87764379169787
H            2.63072105829337        2.03828887670890       -0.79792924208773
