43
 energy: -9.327954874780 gnorm: 0.000260455616 xtb: 6.6.1 (8d0f1dd)
C            1.09195927314880        0.08545245798262       -0.26086090297774
C            0.25759581051585       -0.85086579484955        0.25073654652248
C           -1.18891551607427       -0.82368072817020        0.16871801983665
C           -1.93190467775504       -1.38283464784638        1.18801936166777
C           -3.31100949834358       -1.29386248930068        1.18436207277776
N           -4.02555388895983       -0.69674372161532        0.26540258451032
C           -3.34086394160602       -0.16760021355307       -0.78493225431805
C           -4.07560898221421        0.44802395208094       -1.81886370217123
C           -3.46011616233911        0.94128970449810       -2.93059705861271
C           -2.07792524392477        0.82516670232073       -3.07368269742096
C           -1.33235211592365        0.24584513265891       -2.08945184844011
C           -1.92962431872139       -0.23074210216769       -0.90271225959760
C            2.54081515373566        0.06181108436697       -0.16782268989163
C            3.27678370069689       -1.15635175950481       -0.26936835592189
C            2.66938535302428       -2.39233470027463       -0.60761820899792
C            3.39054410549690       -3.54407391468980       -0.68306966601332
C            4.77101599879163       -3.53790488200502       -0.43908662023618
C            5.40802492487302       -2.37354150807615       -0.15242450179944
C            4.69127773952781       -1.14960390375595       -0.07957089399681
C            5.35400979043150        0.05347060350488        0.14732923507661
C            4.66861768681770        1.26433388917108        0.18871774678955
C            5.35953176275485        2.48759758732540        0.39540780489623
C            4.68720216108535        3.66579733488735        0.45478475408668
C            3.29187688347696        3.68906881429591        0.32059888793142
C            2.59546148045485        2.53667454882518        0.12151705671493
C            3.25089231447543        1.28201504881567        0.03301740033619
H            0.64274350587408        0.96440586545628       -0.68764908160076
H            0.68848376261722       -1.62059209250388        0.86846882750827
H           -1.42476717628877       -1.86110352807213        2.00844530702378
H           -3.86245626295552       -1.72703410352528        2.00445135858931
H           -5.14444495961448        0.51090709106279       -1.71177329722287
H           -4.04235641147919        1.40614750362412       -3.70932115308883
H           -1.60150254017479        1.18679198537346       -3.97031979504276
H           -0.27833963599017        0.10475655662865       -2.24449383779972
H            1.62307814861114       -2.41387067853391       -0.85191874814945
H            2.90158025103838       -4.46944236528262       -0.94049273372309
H            5.32718354148340       -4.45933010922134       -0.49560354613838
H            6.47131410564506       -2.36322019422551        0.01502843873783
H            6.42108941928413        0.04909812306004        0.27749280234420
H            6.43005671960565        2.46702547180659        0.50593902488717
H            5.22342356721921        4.58753902056075        0.61093426702078
H            2.76940480621399        4.62987105488016        0.38046410358894
H            1.52451936546749        2.58186390397430        0.04346825231646
