31
 energy: -6.600755297436 gnorm: 0.000803419127 xtb: 6.6.1 (8d0f1dd)
C            1.06131321967671        0.13797642678935        0.26430664199433
C            0.26827876475539        1.21753831201322        0.16359930100687
C           -1.18012705354958        1.20866820646814        0.14377386295176
C           -1.91676153135577        0.04942361438237        0.33237469919281
C           -3.27696507816147        0.13980832373130        0.30143168323197
N           -3.91097541009655        1.27606026631034        0.09924809717234
C           -3.11784006757621        2.31176894727591       -0.06588281704327
N           -1.80435160094419        2.37027216081542       -0.05814439063367
C            2.51289777032196        0.16642339055450        0.28400573759093
C            3.22543034798930       -1.03332858316912        0.22523236314841
C            4.59872073598782       -1.04106197798100        0.24171276873699
C            5.31823045822352        0.14530288816242        0.32166832974687
C            6.77974981326104        0.09020887840938        0.33946354681091
C            7.65805395455200        1.16277697574444        0.42972286433637
C            8.94039141036194        0.63749706632417        0.41152350160671
C            8.81109377497921       -0.72849806642749        0.31233689404263
O            7.50057534768582       -1.08005631558037        0.26733612245042
C            4.61500748279617        1.34566570600547        0.38470883280327
C            3.24078210351955        1.35640661726614        0.36632457289151
H            0.60498686690950       -0.83300336310937        0.31914452073955
H            0.71907436814955        2.18731807798905        0.06848183859222
H           -1.43389486662650       -0.89489093949818        0.50618292878017
H           -3.88416567577562       -0.74149708184668        0.44653811545769
H           -3.61991266998010        3.25502463676030       -0.23191036743708
H            2.68366233594685       -1.96133457883160        0.16198187662821
H            5.14358626445243       -1.96843940158937        0.19425252952261
H            7.39586000918134        2.20403871086311        0.50025128914265
H            9.86306759898772        1.19156623312126        0.46732597563895
H            9.62715853583168       -1.44031913603857        0.27789872362163
H            5.15791709178596        2.27195455372407        0.44981795828677
H            2.72129569871295        2.29562945136094        0.42667199898482
