58
 energy: -12.491790641930 gnorm: 0.000585719255 xtb: 6.6.1 (8d0f1dd)
C            1.13970447447318        0.02620444081068        0.40775525682987
C            0.30073308705057        0.95689489832168       -0.08098717902575
C           -1.14312112745778        0.93223418420718        0.01386753267548
C           -1.82636260553321       -0.08294689633817        0.66688989433894
C           -3.18786479091361       -0.01862980360965        0.70719258520916
N           -3.87190241393574        0.96183736965957        0.15455906571098
C           -3.12706477131101        1.87050273721861       -0.43721890220412
N           -1.81890589406238        1.93485220888147       -0.55186454791851
C            2.58489060982785        0.06947342723182        0.31048288393942
C            3.34223908006789       -0.98009068988884        0.84017280051992
C            4.71229624960512       -0.97101310244098        0.77055566875619
C            5.39123329675289        0.08809736032903        0.16982329906631
N            6.81936783222076        0.09032077650385        0.09099661927270
C            7.52689178435144       -1.15414818663030       -0.03955947147179
C            8.70569605074564       -1.37799168231862        0.66678243976655
C            9.38635067826328       -2.56709556780174        0.53690952713026
C            8.90280522825197       -3.55352753293365       -0.29977900622725
C            7.73476211290357       -3.34647455360306       -1.00682735513275
C            7.05206558711965       -2.15826615072585       -0.87903010567536
C            7.55563678754776        1.31655746872322        0.13124009233285
C            8.73674610698179        1.46007643930880       -0.59529241245868
C            9.44866119993068        2.63191691414864       -0.55726870895379
C            9.01535716174454        3.71553520808443        0.21323385798081
C            9.79608078974764        4.93623545731835        0.22700484859346
C            9.53021520801136        6.02036179963432        0.97733623610538
C           10.30108717155596        7.24501327944577        0.99969597729268
C           11.39468373030868        7.44814071179743        0.17045979324415
C           12.06060915755849        8.63441563754049        0.26374620914913
N           11.70796356809412        9.58547049131654        1.10412582393250
C           10.65844285314277        9.29080823886816        1.84083334481995
N            9.92633191797848        8.19882139634287        1.85543206434938
C            7.83143038758989        3.56676377848365        0.94335189268641
C            7.12014549623095        2.39355008042970        0.90240554460682
C            4.64032996470757        1.13526291177777       -0.36291405436239
C            3.26960778607445        1.12864130005700       -0.29462830993570
H            0.72460796722392       -0.82604957105232        0.91294863902556
H            0.70759046363175        1.80639702985131       -0.59599116772891
H           -1.30216631275708       -0.89802687857100        1.13163661661264
H           -3.75370390961355       -0.79056609270459        1.20763686561770
H           -3.67084112465616        2.68426221215103       -0.89694181848526
H            2.83435534808331       -1.80498404490495        1.30962297769546
H            5.28289112286377       -1.78015856877258        1.19125539126749
H            9.07199468500293       -0.60771364547912        1.32264195567084
H           10.29753909509045       -2.72849512763762        1.08924657315285
H            9.43686719866222       -4.48397103875141       -0.40112010317176
H            7.35805339184599       -4.11551970469177       -1.66102172352369
H            6.14703830924622       -1.98568665129275       -1.43470618048283
H            9.07679305139577        0.63681368207304       -1.19854038118370
H           10.35726492622020        2.72654096956855       -1.12668269737071
H           10.65866043084873        4.95308220017982       -0.41286741807916
H            8.68284126816158        6.00325167879088        1.63617991018685
H           11.70957556267788        6.69659582349154       -0.53064973065157
H           12.91694051038666        8.82768382945161       -0.36566756672007
H           10.35264987752878       10.06017675607834        2.53669270939222
H            7.46817207294388        4.38115254192932        1.54349539147678
H            6.21942546653447        2.28536198834801        1.48056930496070
H            5.15460050202687        1.94744735227704       -0.84595826743593
H            2.71883634101924        1.95129090952159       -0.71332248517058
