52
 energy: -11.195535335865 gnorm: 0.000982763196 xtb: 6.6.1 (8d0f1dd)
C            0.97048061789648        0.09020105110716        0.26591969223754
C            0.16087893624630        1.05141224257776       -0.21449202040173
C           -1.28693246101542        1.04128697015957       -0.19273274083048
C           -2.00151660841572        0.00128766423258        0.43739562639498
N           -3.29172758195378       -0.09037186302716        0.49857446142637
C           -3.94638457357905        0.92715893492635       -0.10948647114138
C           -5.35427710708787        0.93991957378696       -0.11351819922857
C           -6.05028756803314        1.95028432618037       -0.71154197274109
C           -5.37066337671315        2.99695598311357       -1.33374905041245
C           -4.00688686201230        3.01581160783025       -1.34890411801292
C           -3.25478857055454        1.98852398863006       -0.74297358027046
N           -1.90689210991391        2.04490841933021       -0.78452243064569
C            2.41874956316133        0.12371308279881        0.23256300470850
C            3.14327634170613       -0.95481919441947        0.75100636283988
C            4.51510523185195       -0.95858212971489        0.73774113031357
C            5.22908198319206        0.11521906381840        0.20700841846700
N            6.65772339597777        0.10819406393364        0.19017075168177
C            7.37639118559803       -1.13109760972392        0.08630096625291
C            8.54302063667844       -1.33688617410068        0.81842076408427
C            9.23893916090071       -2.51966884525745        0.71164974859600
C            8.78514053185125       -3.51743576627704       -0.12869040725269
C            7.63141638690600       -3.32710158108350       -0.86404973750269
C            6.93318760076913       -2.14553957810721       -0.75859182584242
C            7.39412317172105        1.33942951399482        0.25630934397698
C            8.54299718050554        1.51946550654158       -0.50976461431346
C            9.25476448941358        2.69570391826262       -0.44329107212619
C            8.83426405196870        3.71294058529777        0.39105246161804
C            7.69878886013042        3.54844828706530        1.16015489713226
C            6.98498710929083        2.37320382631536        1.09504515234839
C            4.51092823080794        1.19253357040338       -0.31121442429354
C            3.13848523745048        1.19894807764767       -0.29993665750651
H            0.52896211956756       -0.78386759548366        0.70662100945586
H            0.60028474345171        1.91633790835119       -0.67428950195912
H           -1.45378279105295       -0.79127443999558        0.91712816234293
H           -5.87049160936659        0.12883126738037        0.36942194714357
H           -7.12786878010315        1.94160466487258       -0.70308987647480
H           -5.92652268267934        3.79178782200365       -1.80340375762622
H           -3.47485969093364        3.81872601993404       -1.82828311222841
H            2.60779503291503       -1.79108499083502        1.16684439828051
H            5.05929197984154       -1.78909940276986        1.15196536260900
H            8.88716140008607       -0.55720493608175        1.47522943731763
H           10.13919590112419       -2.66791302477328        1.28540439645351
H            9.33137363873845       -4.44266263321615       -0.21222174823879
H            7.27925407897304       -4.10377181309527       -1.52305756329680
H            6.04129574892906       -1.98554392825810       -1.33896429250040
H            8.86093659396012        0.72510587821779       -1.16222965490017
H           10.14069113673590        2.82356074137861       -1.04358455713952
H            9.39250812959486        4.63337098215119        0.44249432579609
H            7.37252103518208        4.34085965463780        1.81378133567575
H            6.10692082742490        2.23377184743554        1.70117220020810
H            5.05328956762849        2.01834732509187       -0.73721452494353
H            2.61264053523904        2.04284113681025       -0.70843744553337
