45
 energy: -8.793915920056 gnorm: 0.000858644504 xtb: 6.6.1 (8d0f1dd)
C            1.03068468239201       -0.00611075286350       -0.09791296970830
C            0.21790453526716        1.06550482160864       -0.14591440734088
C           -1.22993748973781        1.03844045411981       -0.15804241481154
C           -1.93986569627594       -0.16550727448820        0.03227210792688
N           -3.22934104310353       -0.28352050944995        0.02698885502488
C           -3.88858894027912        0.88018559851754       -0.18625913631896
C           -5.29613988071035        0.88099259835296       -0.22509750335888
C           -5.99677810407945        2.03321856579600       -0.43729209143456
C           -5.32207193297885        3.24008720202284       -0.61989644927305
C           -3.95897773578635        3.27546576584122       -0.58707479064585
C           -3.20194634764207        2.10544185731057       -0.37131998972347
N           -1.85461088633404        2.18458462278674       -0.35342334271213
C            2.47785530706687        0.04272385025939       -0.09922000340786
C            3.20777933238937       -1.14853868752567       -0.17235115436392
C            4.57864285902020       -1.14270389898923       -0.18690568703075
C            5.29700009422072        0.05750893511225       -0.12074760993807
N            6.70815340745972        0.07021874953295       -0.13407377877318
C            7.50842671569265       -1.08065856291610       -0.60296482958174
C            8.14073931840692       -1.81681620458741        0.58151420786280
C            8.99186964272471       -0.84668836526805        1.41887099398233
C            8.16816672543806        0.38044427210485        1.84987902160285
C            7.50076412091796        1.05306332638047        0.64280395580436
C            4.56586111925692        1.24926842916589       -0.04017681834028
C            3.19431589510580        1.24282424780820       -0.03162189316981
H            0.59141386506929       -0.98629457453106       -0.08113049944330
H            0.65428570488472        2.04429141896210       -0.20993797054655
H           -1.38694170630912       -1.07232436167802        0.20831092802461
H           -5.80851291211886       -0.05436040899251       -0.08235729433340
H           -7.07390956518315        2.01217196582550       -0.46410211841745
H           -5.88168863052818        4.14542847729138       -0.78980213525585
H           -3.43061669481494        4.20206314829691       -0.72870137051873
H            2.67503136852531       -2.08307607003680       -0.21883699642923
H            5.11192392208045       -2.07578719776863       -0.21711034066512
H            8.28841718188123       -0.69486993423558       -1.26728788748521
H            6.89124488939043       -1.73935395416224       -1.22185062008989
H            8.73746371971389       -2.67342474502469        0.23837724885654
H            7.34654663804005       -2.23836496976959        1.20933477813018
H            9.85491421465205       -0.51639440846886        0.82772898930910
H            9.41512952508684       -1.35836956371856        2.29470212079094
H            8.79537558601806        1.09872752110378        2.39596522587098
H            7.39275537018762        0.06578022056276        2.55908116744576
H            8.25288130126404        1.48774145742780       -0.02264489848726
H            6.85784638126616        1.87802613988617        0.96268139121614
H            5.09205801714166        2.18687272763987       -0.02452972765470
H            2.66370612531359        2.17595807075138        0.02922573741474
