28
 energy: -6.111501038118 gnorm: 0.000646413451 xtb: 6.6.1 (8d0f1dd)
C            0.97373934477470       -0.12757028663034       -0.16992753776141
C            0.16587244006162       -1.10235650807022        0.27737553922557
C           -1.28187057018564       -1.09576345885933        0.21974336672469
C           -1.97772517270257       -0.10360412632911       -0.50072793067311
N           -3.26559107998781       -0.01717185162743       -0.60039836435470
C           -3.93547041513165       -0.98752300610816        0.06405951455054
C           -5.34288764618473       -0.99819177157230        0.03761159924670
C           -6.05372215262999       -1.96029322467625        0.69290146858852
C           -5.39061517243379       -2.95859913771112        1.40543178016326
C           -4.02833866795704       -2.97876836812819        1.45089508704661
C           -3.26128904467516       -2.00061380632773        0.78712673199303
N           -1.91497002094068       -2.05631741657433        0.86231581114314
C            2.42305007444225       -0.13340950979893       -0.10822044228640
C            3.13177040602795       -1.26286657906270        0.30275554002733
N            4.43879832776797       -1.33166407218996        0.38021547825947
C            5.03968751108929       -0.21430139787182        0.02703797582936
C            4.36435453777741        0.90852695312619       -0.38533759135049
N            3.05509527240800        0.98424005065093       -0.46737846325072
H            0.53932368390395        0.75955787108940       -0.59025032846973
H            0.59895103114344       -1.96244023112694        0.75186531383378
H           -1.41614075940953        0.64678344384079       -1.03066736369396
H           -5.84591389431368       -0.22447701553511       -0.51548168387457
H           -7.13072498960780       -1.95090077376194        0.66117432031611
H           -5.95882558946520       -3.71483545221529        1.92145140363159
H           -3.50833415827251       -3.74447751064588        1.99948905157491
H            2.59546541628914       -2.15780096073185        0.57015599439858
H            6.11894347373165       -0.20742517685490        0.07144502537360
H            4.91771781448037        1.79349332370212       -0.66203129621132
