58
 energy: -12.455468432809 gnorm: 0.000686695381 xtb: 6.6.1 (8d0f1dd)
C            0.99088645103815        0.01642495758441        0.38849061149785
C            0.16150628925335        0.94801738395012       -0.11143910645471
C           -1.28789231413223        0.92919095033778       -0.04394706254903
C           -1.97924833869682       -0.11507343213016        0.57217584713300
N           -3.28522547345972       -0.19026390460127        0.66255558608752
C           -3.90416836183748        0.83112368477150        0.10752950377270
C           -3.24676225654815        1.87110119729837       -0.50411876780382
N           -1.93880113355695        1.95327869794403       -0.59866317551345
C            2.43783396357070        0.05359736327002        0.30376587599770
C            3.18593287971397       -1.00143687842369        0.83519289109270
C            4.55621300370280       -1.00321762741655        0.76768359081020
C            5.24453151091178        0.05048634863966        0.16832374927314
N            6.67244012729167        0.04245182691303        0.08955144277742
C            7.37567737839219       -1.20602523193791       -0.02423694636379
C            8.55076795054906       -1.42505553784085        0.68975106703409
C            9.22512583592481       -2.61994272973410        0.58180223862730
C            8.73983847390348       -3.61674320406819       -0.24158571110688
C            7.57657276641536       -3.41373935428785       -0.95776521715693
C            6.89980205099802       -2.21997370091612       -0.85123001756620
C            7.41495783379932        1.26566715628241        0.12379242018240
C            8.58204006150413        1.41078607009434       -0.62477817566462
C            9.30084153530547        2.57867895085172       -0.58816115300625
C            8.89005332845765        3.65458099724350        0.20488878836122
C            9.67624769727980        4.87287972564782        0.21919057463268
C            9.45164222942223        5.92817668422442        1.02016116428875
C           10.22035631760984        7.15851072064402        1.05036756143244
C           11.24627004713710        7.40293557425974        0.13558586649297
N           11.97342462183936        8.49377405430872        0.10864900035676
C           11.64348798654871        9.36089784618082        1.04375342413620
C           10.63667041843715        9.14482970954776        1.95410053623224
N            9.90285641173020        8.05539537386689        1.98620057713431
C            7.71971264054745        3.50426662970453        0.95590817647118
C            7.00016691614744        2.33631045564295        0.91476745139879
C            4.50269540376152        1.10514091107021       -0.36219614377229
C            3.13182463014501        1.10900749408148       -0.29663304188753
H            0.56922579642080       -0.83415027121816        0.89075137707437
H            0.57915066414177        1.79712007966264       -0.61829524529231
H           -1.42816904580873       -0.92941259794238        1.01125516267781
H           -4.98342979487217        0.82749800749392        0.14854576946990
H           -3.81478424200654        2.67929631991084       -0.93971595285577
H            2.67071002920074       -1.82256776250641        1.30325743591153
H            5.11958832533530       -1.81708543876131        1.18909954984912
H            8.91825191575434       -0.64668508386568        1.33534157810066
H           10.13219453129486       -2.77836883638737        1.14176495377953
H            9.26855556512596       -4.55199286741476       -0.32541937638844
H            7.19905650166587       -4.19068167335876       -1.60215583917522
H            5.99824374423301       -2.05121981804504       -1.41376396524073
H            8.90498351802159        0.59210136577693       -1.24360023054717
H           10.19780776490372        2.67559529616371       -1.17537415192296
H           10.50657878947434        4.90781055644820       -0.46123495809743
H            8.64493251327941        5.88140941620662        1.72689625551176
H           11.47202607544912        6.66628232670515       -0.61723433720704
H           12.20721817019389       10.28170725045077        1.07421806324410
H           10.41615154323977        9.89849624234780        2.69525166686006
H            7.37156363998322        4.31485001037683        1.57011654555258
H            6.10983407844717        2.22611876543568        1.50869309452516
H            5.02422556240979        1.91426225450797       -0.84263287231179
H            2.58805547100208        1.93671729500859       -0.71447794989957
