46
 energy: -9.799283241142 gnorm: 0.000658286257 xtb: 6.6.1 (8d0f1dd)
C            1.03869883053202        0.17616488358239        0.28919028590088
C            0.23655621651811        1.16985200536746       -0.13079118708699
C           -1.21398856373237        1.17096930825120       -0.10107489537583
C           -1.93687694207021        0.09415309663688        0.41586586396409
N           -3.24581944232423        0.03549950516377        0.47084170280352
C           -3.83459619204048        1.10766535805835       -0.01768362849279
C           -3.14605038225349        2.18026089180490       -0.53144155201379
N           -1.83501684223693        2.24678263746633       -0.58914929973615
C            2.48760614812961        0.19954711174248        0.24933068494596
C            3.20810165663404       -0.89214095811658        0.74497348260328
C            4.57992903068254       -0.90400138415837        0.72418856508050
C            5.29761138885914        0.17367115140943        0.20692371644497
N            6.72621140196781        0.16035291148550        0.18443738725124
C            7.43939294088405       -1.08086469899045        0.06652895303564
C            8.60406056467197       -1.30010495729333        0.79768912567831
C            9.29223910073565       -2.48659615526316        0.68214806403065
C            8.83222195014653       -3.47425923428082       -0.16663057985113
C            7.68094515001367       -3.26997664492739       -0.90205554812985
C            6.99069549106794       -2.08448546402458       -0.78815788352347
C            7.46872155279731        1.38688928913427        0.26829774283728
C            8.61673084398861        1.57283083484341       -0.49752167914365
C            9.33688126314150        2.74263384423737       -0.41117879257074
C            8.92538563756368        3.74736764311063        0.44254433999257
C            7.79051282883282        3.57681952684675        1.21112947916727
C            7.06840720963924        2.40791189563004        1.12652717677024
C            4.58350061382685        1.26340064169203       -0.29007402193646
C            3.21114708316102        1.27798526732657       -0.27081357575306
H            0.59157098057209       -0.71434486927416        0.68948599636394
H            0.68081228807505        2.06051994531881       -0.53284538512339
H           -1.40925578692538       -0.76071974046683        0.80360300847141
H           -4.91444718512272        1.12039156464375       -0.00150279343365
H           -3.69099122578518        3.02935907952825       -0.91530413846087
H            2.66996933255488       -1.73194448596527        1.15014207086619
H            5.12115824767179       -1.74463554074721        1.12155124324784
H            8.95304408916243       -0.52802988289014        1.46084163202890
H           10.19084670631162       -2.64501046715250        1.25571965526478
H            9.37158755076011       -4.40297609137599       -0.25614912211546
H            7.32407168808983       -4.03848215926334       -1.56800003630835
H            6.10094877006377       -1.91297166432155       -1.36858927812383
H            8.92791950417126        0.78781558482675       -1.16432898712972
H           10.22261633207353        2.87458655399390       -1.01077653759109
H            9.49021619155680        4.66269600820677        0.50985270122644
H            7.47135831018260        4.35912450212631        1.88025723154972
H            6.19162928162220        2.26283572038283        1.73320559106227
H            5.12825135860855        2.09272199504834       -0.70605984235780
H            2.68944502722134        2.12990564064511       -0.66760693632817
