52
 energy: -11.475666986598 gnorm: 0.000726671263 xtb: 6.6.1 (8d0f1dd)
C            1.14185977290328       -0.23893896044594       -0.27913901746419
C            0.32968290135779       -1.25358592530260        0.08484380966940
C           -1.09833617477844       -1.21400979878973        0.01253220500059
N           -1.87478155049564       -2.03787858955119        0.71619749099525
C           -3.15023253884244       -1.71979686287899        0.44982912462807
C           -4.28819106923529       -2.42179993644645        1.04701014220179
C           -4.13214663415805       -3.04758309288868        2.28290258773631
C           -5.17823160959099       -3.72288910158257        2.87004730376551
C           -6.39950599489262       -3.79644164330223        2.22979732895271
C           -6.56757093439487       -3.20019250670916        0.99536452714588
C           -5.52382848134063       -2.52266026269875        0.40617283231592
C           -3.18370375520091       -0.63405773048865       -0.46497438924758
C           -4.24138803348736        0.11229905728448       -1.01626814530380
C           -3.94748281819911        1.08971450144353       -1.91499222421753
C           -2.61314577693927        1.33830868709230       -2.28611428203544
C           -1.59924405188917        0.63628255939743       -1.72413896683329
N           -1.86860755638020       -0.33451260071048       -0.77023015754660
C            2.56966849216241       -0.26035476991325       -0.20065199265486
N            3.29825628413441        0.85547761904650       -0.20494973513028
C            4.58687371624020        0.50038817657262       -0.09690422872111
C            5.67673281035122        1.47789518440889       -0.07960696829034
C            5.41437398418086        2.77982169593770        0.34476860207994
C            6.40785991289084        3.73247367108892        0.36052730186017
C            7.68314777487623        3.40751182286435       -0.05783703083486
C            7.95824306609817        2.12795594228303       -0.49954828767365
C            6.96697025582027        1.17238482338655       -0.51498973316156
C            4.67954136762592       -0.91442643293814       -0.01167365029796
C            5.76755233919590       -1.78866988451526        0.16630735213250
C            5.53142529658309       -3.12800734511085        0.16956233527658
C            4.22585976887902       -3.62225606247562       -0.00752300326969
C            3.17994587331335       -2.77163550141093       -0.14605306686247
N            3.38849563825916       -1.40070135677928       -0.11168937185188
H            0.70225463258657        0.69951301948766       -0.55707257025544
H            0.75625057527608       -2.11756408758102        0.55666310871775
H           -3.17478632598961       -2.99057158310481        2.77161843264780
H           -5.04342594574972       -4.19565599560574        3.82914387224660
H           -7.21835160755320       -4.32560321012939        2.68908202754265
H           -7.51645072925762       -3.27115314776407        0.48921965037922
H           -5.64502864190367       -2.10208679409728       -0.57585327781942
H           -5.25435015562753       -0.06853520370923       -0.70653051380338
H           -4.73921803046144        1.67478984224805       -2.35335093954955
H           -2.40011840234309        2.09157202464706       -3.02654742734595
H           -0.58565425628563        0.79027143890632       -2.04215910946994
H            4.41529060303310        3.02602113014947        0.66099210315056
H            6.18927770379667        4.73308010601449        0.69642217050461
H            8.46073222702848        4.15366624832371       -0.04773161232441
H            8.95013718147549        1.87928980858117       -0.84028197907751
H            7.17462445514015        0.19288115543187       -0.90652375701593
H            6.75657958634078       -1.40125903636650        0.32870431196866
H            6.34791909162051       -3.81865309411305        0.30273104228769
H            4.06106506770393       -4.68671918308505       -0.03523326558106
H            2.19029069612985       -3.14557881409155       -0.32716095955188
