32
 energy: -6.454732324019 gnorm: 0.000311075240 xtb: 6.6.1 (8d0f1dd)
Br          -1.53157269370508        0.69195585243507       -0.40208546984147
C            0.31642426690435        0.34949945289183       -0.21154300002084
C            1.18471283550742        1.38430277132262        0.06553132830763
C            2.53433297746598        1.13669675453332        0.20831951324699
C            3.03863093743394       -0.15638886163870        0.07383159396240
N            4.42163228374556       -0.39001958103133        0.23368067366667
C            5.12015614225838       -1.53753107569001        0.09195886119568
C            6.47596449127788       -1.62465405611102        0.31329294162576
C            7.19533575488885       -2.78883874863540        0.16543559801840
N            8.52048273061129       -2.87513107628502        0.41324447690390
C            9.37844265572658       -3.99104326641415        0.30494828193022
C            8.93595712354145       -5.20985403767832       -0.20678630067584
C            9.79314027282160       -6.28761852961847       -0.29435440619706
C           11.10149060276191       -6.17002658303818        0.12536022674397
Br          12.26883815147217       -7.65058019762836        0.00738849205682
C           11.55661587635000       -4.97077425830138        0.63150034580595
C           10.70567751693844       -3.88851670635555        0.72024147206721
C            2.14703710400543       -1.19032904970345       -0.20756085487363
C            0.79814236636241       -0.93547703247899       -0.34781121223307
H            0.79399933995431        2.38346208054018        0.16877689208906
H            3.21256742848393        1.94320280803663        0.42509036721119
H            4.96460250383898        0.42933545624264        0.49679904557430
H            4.58836495888718       -2.42074706223337       -0.20889258301045
H            6.99948656032998       -0.73867101748810        0.62389357756749
H            6.67943996474485       -3.67669759779422       -0.14906221581893
H            8.96883138620811       -2.02141884640159        0.73808582833288
H            7.91963564885346       -5.30753342850479       -0.54200952429241
H            9.45309749283615       -7.23062348193083       -0.69032492553047
H           12.58162863934582       -4.89377420084705        0.95561283908949
H           11.05930949308035       -2.95337070126102        1.11760142794595
H            2.51412965075798       -2.19522660616184       -0.30884999735064
H            0.10640553630852       -1.73370917277039       -0.56232329349997
