111
 energy: -24.645828701040 gnorm: 0.000590178825 xtb: 6.6.1 (8d0f1dd)
C            0.58416615397871        0.73171505281064        0.50696049052950
C           -0.17280328626844        1.61219479406420       -0.16629641143926
C           -1.59576471063623        1.44458524363594       -0.34542355250822
N           -2.15911220808163        0.35040353113777        0.14592617446747
C           -3.47060390437706        0.27550546317040       -0.03247672000096
C           -4.15181902324515       -0.89136701011764        0.47763417467767
C           -3.50341078965908       -1.89807534369654        1.08422618919291
C           -4.11422259169801       -3.09548211300753        1.62417168695472
C           -3.30521138360199       -4.10054099498859        2.16207982679523
C           -3.85387134172070       -5.24753010970813        2.68073147166352
C           -5.23270775541263       -5.43457838504176        2.68680390720095
N           -5.80921814090615       -6.63037646010707        3.23235883709460
C           -6.87994298014051       -6.69136422813835        4.15015129907387
C           -7.60472619345455       -5.67868683274235        4.77730486828580
C           -8.60572044166087       -6.02559273854953        5.65116742241336
C           -8.89772862108013       -7.36612893380770        5.91631997443982
C           -8.18736964264368       -8.37677592054092        5.31418208930858
C           -7.16618769056038       -8.03909151768935        4.42537190042141
C           -6.24429842398418       -8.83952954065189        3.65394555613376
C           -6.07627589730169      -10.21898093652715        3.52874171025079
C           -5.09816031849320      -10.68993521021925        2.68618606769205
C           -4.28730961647593       -9.81039964451490        1.96393987929581
C           -4.44030373435239       -8.45036757851975        2.07831725567227
C           -5.42254361760922       -7.95503423061599        2.93497059233616
C           -6.04455656157354       -4.43715473178139        2.15568130466580
C           -5.49858632629817       -3.29056239124156        1.63343405675603
N           -4.21574016872262        1.18946433760756       -0.63900466973026
C           -3.54471412536395        2.23916502066240       -1.09159353768743
C           -4.30300323397754        3.27576545736920       -1.75192951286596
C           -3.71852130756221        4.37569191404527       -2.25229303972101
C           -4.39186590082931        5.47734028515134       -2.90789658335143
C           -3.63645499430164        6.53149570663234       -3.42903666856667
C           -4.24237421763407        7.59711102426474       -4.04699616830111
C           -5.62735733564787        7.65353239168427       -4.16778143208996
N           -6.26049151068493        8.76997968725320       -4.80913321704338
C           -7.26910560788748        8.70047698010814       -5.79427814758383
C           -7.87792687272046        7.60393281286659       -6.40352253344697
C           -8.83784775095950        7.82715533272707       -7.35987787074441
C           -9.20146312254834        9.12570741402240       -7.72604830158761
C           -8.60412907094245       10.21769064256815       -7.14361012352097
C           -7.62624461930434       10.00612129285063       -6.17109741145885
C           -6.81408258808628       10.91420496625595       -5.39566817497096
C           -6.74439637642132       12.30705696297811       -5.35104644794382
C           -5.85840072872038       12.89514822828514       -4.48066839417285
C           -5.04379514855102       12.11968292163520       -3.65145781884627
C           -5.09978373447823       10.74795293873116       -3.68644737411429
C           -5.98579008195781       10.13415261137581       -4.57113489981891
C           -6.38601586038705        6.60715378056913       -3.65179962678804
C           -5.78265015008984        5.53924892672599       -3.03405449837137
N           -2.23681500833135        2.41800420407061       -0.97672733059513
C            2.00341187733057        0.86791046484381        0.76463922479471
C            2.64005813322368       -0.03434552178451        1.62164508167791
C            3.97415735081444        0.09569979798483        1.91948547713272
C            4.72698027428134        1.12834752920725        1.36869850417901
N            6.10959550682789        1.29434286978913        1.71656524242480
C            7.17965080010465        1.50396353444318        0.82037994772035
C            7.21085581918417        1.53829646021336       -0.57305961036023
C            8.41270575963394        1.75255545346264       -1.20222839711808
C            9.58828683046753        1.93134878196525       -0.46814896174495
C            9.57668980204315        1.89335323835648        0.90551541476156
C            8.36320227367268        1.67447791058829        1.55840138880178
C            8.01567713568383        1.57401057329659        2.95666529812766
C            8.77301462059994        1.68199449669641        4.12360296156834
C            8.13699892733343        1.56123881232202        5.33586434334209
C            6.75916406522746        1.33902779367438        5.40562708721681
C            6.00142158658144        1.22941332215639        4.26560398264510
C            6.63208348743031        1.34000787850311        3.02705618541548
C            4.10508218421679        2.01803070204803        0.49832298221485
C            2.77011068374626        1.89311981181692        0.20217997987589
H            0.09138798207377       -0.13123443514123        0.91762461518685
H            0.26285491061011        2.50528557019575       -0.57206173246225
H           -5.21621563951067       -0.92890978588789        0.34506319377762
H           -2.43552468157777       -1.81122606982061        1.17529582011716
H           -2.23722363295683       -3.96517086822842        2.16676265805535
H           -3.22536491770252       -6.00984214407447        3.10676548906160
H           -7.36641219189804       -4.64915877428188        4.57922157513971
H           -9.17374765919823       -5.25261819390627        6.14225604734444
H           -9.68896692565325       -7.60968504308489        6.60609055735215
H           -8.40206608243477       -9.41117701091513        5.51665956563454
H           -6.70832741378155      -10.88868002682069        4.08472778200818
H           -4.95524421232289      -11.75252041518185        2.57818590825404
H           -3.53210461926030      -10.20676270799505        1.30524879169855
H           -3.82863310186848       -7.76865207572497        1.51527893653378
H           -7.10995514022361       -4.58754351888683        2.14667696611313
H           -6.14649806435546       -2.53371683154398        1.22932689468177
H           -5.36461008143881        3.13647568107113       -1.82603303615154
H           -2.65028047888950        4.44976686480552       -2.15282976450071
H           -2.56382794058488        6.49819854416305       -3.34329557794494
H           -3.65223881970639        8.39538009039709       -4.46183309005020
H           -7.58341342744246        6.60723212224409       -6.12839069002084
H           -9.31679569727729        6.98839075786389       -7.83778737051352
H           -9.95833150009626        9.27166416098962       -8.47903412834570
H           -8.87371360912576       11.22058920973032       -7.42395461952143
H           -7.37861376474117       12.89622320269252       -5.98958522117622
H           -5.79227191399253       13.96966508720279       -4.43362560597469
H           -4.36299825442423       12.60685609327140       -2.97284343318787
H           -4.48560846218062       10.14642315448380       -3.04086243010913
H           -7.45809378605807        6.65930763454117       -3.72660211925475
H           -6.38964543162370        4.74703315592111       -2.63404104063483
H            2.06630040250822       -0.83334698264339        2.05906112813087
H            4.45810140180297       -0.60402099925684        2.57821395338692
H            6.30447116579870        1.38859646245190       -1.13172346091085
H            8.45131177565079        1.78103973018357       -2.27879361915787
H           10.51735468796337        2.09829257272176       -0.98789738136298
H           10.47753883035097        2.02656225832053        1.47807886082700
H            9.83190031289508        1.86060614998763        4.06089235648144
H            8.70726961051670        1.64289364071003        6.24650928890263
H            6.28429016442978        1.25567468089896        6.36940639563889
H            4.93885555548651        1.07231956538346        4.31221127384530
H            4.68420765612721        2.82256703348159        0.07987981453727
H            2.31061443911021        2.59458347692190       -0.47072595214333
