40
 energy: -8.751885922714 gnorm: 0.000377637257 xtb: 6.6.1 (8d0f1dd)
C            0.73944379632998        0.15477118462786        0.20379126440143
C            0.01610416865198        1.14866903297976       -0.32895464097583
C           -1.41670638709969        1.17559984984960       -0.22138623978902
N           -2.17470984247166        2.13960197053734       -0.74030842798268
C           -3.43675860450506        1.80473522671578       -0.42914645930991
C           -4.66932844557159        2.48706365711495       -0.73658419533309
C           -4.66161419883940        3.67738566913315       -1.46347745086485
C           -5.83379892244069        4.32413384749774       -1.75187622497358
C           -7.03942668833793        3.79326141812457       -1.31864166277229
C           -7.06774299373947        2.62254186648091       -0.60242930956187
C           -5.88967657358649        1.93244778046835       -0.28896406211360
C           -5.89089794732385        0.67806435516236        0.47480125392532
C           -7.07015427111810        0.08152071267498        0.93920267901862
C           -7.04316063692658       -1.09200210887354        1.65092505640399
C           -5.83784289187953       -1.71928629213231        1.92920820677287
C           -4.66454813887900       -1.16599394360596        1.49069667682213
C           -4.67215999889860        0.02480111210048        0.76549560880360
C           -3.43897460124623        0.60259288112185        0.30261592270437
O           -2.14441313665443        0.20501001845169        0.43071785627191
C            2.18591443131642        0.03215283605393        0.15189989488957
C            2.99807116063547        0.99976069528818       -0.44228351410343
C            4.36671233605846        0.84899649514071       -0.47389418050467
C            4.95586145125152       -0.26707951416605        0.08482976162335
C            4.17059868642082       -1.23455508265239        0.67798810358335
C            2.80202151088124       -1.08794196835551        0.71241033742063
H            0.20082705446537       -0.62476656095502        0.71375747812635
H            0.48833470586192        1.95463709647083       -0.85646820051239
H           -3.71731772010303        4.07579458692392       -1.79178624158794
H           -5.82041392790954        5.24353904777044       -2.31390854368299
H           -7.95999318260206        4.30511873988149       -1.54703051920788
H           -8.01566942090753        2.23382892945641       -0.27841656531069
H           -8.01794825251344        0.54557468006607        0.73683447290211
H           -7.96457905830420       -1.53114788459786        1.99690323711330
H           -5.82543164137452       -2.63984295314660        2.48935101484260
H           -3.71988023416304       -1.63916852949252        1.69683528934385
H            2.55209722183100        1.87541295956873       -0.87855026662562
H            4.98003171260040        1.60505202051545       -0.93627057017334
H            6.02699022190360       -0.38292451898831        0.05797729102030
H            4.62951867705934       -2.10669131512388        1.11419171580379
H            2.19127058212740       -1.84465799808582        1.17429415359198
