52
 energy: -11.753611467646 gnorm: 0.000336539260 xtb: 6.6.1 (8d0f1dd)
C            1.23599217519503        0.24491012118892        0.02177644825318
C            0.49022065641915        1.27640760965903        0.45226008169868
C           -0.94499615732146        1.27710284730926        0.44262118758715
N           -1.67768810124606        2.33781526026510        0.76576551573566
C           -2.97695104765035        1.95714572819252        0.63675516225986
C           -4.16377087613618        2.67646043725541        0.84732546366162
C           -5.36157330435378        2.04440854815330        0.64704721131905
C           -5.41923563243305        0.70176514597155        0.24025407108399
C           -4.27771104675835       -0.02361101563735        0.02634909424766
C           -3.04334533838138        0.60526372097250        0.22302981250561
N           -1.74030495405578        0.18675465380927        0.09981056296077
C            2.68405596608151        0.20353468014047        0.01161605881410
C            3.34111411000646       -0.83467400388499       -0.65546022926874
C            4.71171677312480       -0.89521427426999       -0.68929349679734
C            5.48598617849639        0.07078594978313       -0.05037913640484
C            6.93785252562733       -0.01210344588325       -0.10399570232355
N            7.59857657947863       -0.88997662009875       -0.85611189555430
C            8.90936621025438       -0.65570733306654       -0.63925669205710
C           10.06315120185826       -1.30667095460611       -1.20649382455092
C            9.93990591501959       -2.33562675092947       -2.12725223063176
C           11.07993452182980       -2.89432927735281       -2.62615438810687
C           12.30142369499413       -2.41444573684145       -2.19543508950755
N           12.46484120874447       -1.44262287829793       -1.32413425123177
C           11.35268129999305       -0.88037874957814       -0.82195244375049
C           11.50912857686945        0.20384820550105        0.14530263616690
N           12.75678501503498        0.56575633084734        0.48803473390053
C           12.87637720845640        1.54340676303240        1.35935999636037
C           11.82077508841197        2.21808624958653        1.94125577818781
C           10.54680554494933        1.86500398317771        1.60571014633581
C           10.37022515405575        0.83729118413003        0.68976086134771
C            9.06757216206713        0.39188707937678        0.27811502588397
N            7.80807657642357        0.79938426339346        0.61193658292691
C            4.83632801456841        1.10403255731379        0.62290396662997
C            3.46523509244324        1.17093385567688        0.65190715708058
H            0.72695979862154       -0.61766556100814       -0.36732162428555
H            0.96662895086052        2.17170162270063        0.80343106760828
H           -4.11085170938699        3.70429249557647        1.15825913944820
H           -6.27933915026242        2.58660820381025        0.80403926447338
H           -6.37972283970884        0.23586613934356        0.09441952781738
H           -4.31056103122362       -1.05242843409900       -0.28438948043941
H           -1.43851329965560       -0.75049080204074       -0.16942781618191
H            2.75678368952790       -1.58855781363835       -1.15436503949753
H            5.21202936065017       -1.69236666219872       -1.21121851033114
H            8.96281373469181       -2.66962497317529       -2.43053723983067
H           11.02894915281425       -3.69519125639733       -3.34525424583366
H           13.20523797454888       -2.85254253698204       -2.59002213191303
H           13.88527866390161        1.82097304324507        1.62317416931946
H           12.00180507311911        3.01007230834715        2.64915961980626
H            9.69411248371768        2.36171680078208        2.03414311355842
H            7.56722556290175        1.53427769090894        1.27823629858144
H            5.42213579213616        1.85869349661528        1.11635459599092
H            2.98693680065548        1.97261210394272        1.18537111695268
