28
 energy: -5.865923441745 gnorm: 0.000767676958 xtb: 6.6.1 (8d0f1dd)
C            1.08262566491619        0.11182739566827        0.24047005395708
C            0.31255410692983        1.15322647981323       -0.11879473318736
C           -1.11447220410862        1.10947208535290       -0.10354032953713
N           -1.86544373359728        2.11213863343709       -0.46915604799206
C           -3.21155218488953        1.81315864721967       -0.35930345645308
C           -4.26791687654710        2.67822317909964       -0.67848623625040
C           -5.56265403941108        2.24954018641257       -0.52925774739523
C           -5.83980650348828        0.96508041942122       -0.06295226835421
C           -4.81870069201826        0.10274185310784        0.25558350893628
C           -3.50520216991498        0.52494385546800        0.10685772274613
S           -2.02001125907941       -0.31850212528312        0.41480273742956
C            2.53369816348180        0.08649169081313        0.24761157046072
C            3.19853034146217       -1.07639967955075        0.64168927235020
C            4.57414500207807       -1.13265534148159        0.66168669929875
C            5.31830691474392       -0.03152304129024        0.28903773202741
C            4.68074587221269        1.12741946391177       -0.10519646658693
C            3.30492946533088        1.18885842710810       -0.12668319626668
H            0.58401390099549       -0.78814744000719        0.55247448811024
H            0.76482795767743        2.07246837298348       -0.43955919791441
H           -4.04414109549568        3.66616344495878       -1.03974664414370
H           -6.37577644455434        2.91252039567039       -0.77555835888725
H           -6.86358778218160        0.64816999980033        0.04916174823377
H           -5.01863291464944       -0.89125462686173        0.61651911121521
H            2.62032164816518       -1.93649119491250        0.93319567725051
H            5.07107378274755       -2.03768723130068        0.97049330559820
H            6.39500640279719       -0.07626507479150        0.30553673283395
H            5.26258309327592        1.98639988640986       -0.39731396201838
H            2.82157558312108        2.09815133882625       -0.43563171546067
