39
 energy: -8.273086645814 gnorm: 0.000887648324 xtb: 6.6.1 (8d0f1dd)
Br          -0.59485398179929       -0.62935979858161        0.20652435851788
C            1.27603314351074       -0.38156250781476        0.13676958662666
C            1.79843314631540        0.74852212259915       -0.45958951990912
C            3.16262541382514        0.93481673969701       -0.51464146288285
C            4.02847304997473       -0.01663893390980        0.03171042722763
N            5.45331340344526        0.17364439661366       -0.02285140156576
C            6.12246734944610        0.91724306525428        1.03125267529814
C            7.44041862761810        1.24983956061999        0.98152415491710
S            7.95359903437425        2.13864528509490        2.39479800531381
C            6.36136994525894        2.08187784708379        3.09763434571369
C            5.94256002796423        2.61263011034988        4.30899095854167
C            4.63175716711197        2.46248501584574        4.69165059545133
C            3.73597712421999        1.78579929117872        3.86931052125627
C            4.14568979019944        1.26000606417079        2.67055318272319
C            5.48158153083203        1.39629838815881        2.25393368490782
S            8.58087911618806        0.88228995349855       -0.30359421169736
C            7.52690564576280       -0.05647293592811       -1.35030071857883
S            8.14637127549912       -0.77679515687755       -2.81586625567354
C            6.59318561850190       -1.44755652621565       -3.22873614653412
C            6.25873721366108       -2.20768585465916       -4.33988557065629
C            4.96538702888240       -2.64578722877925       -4.49065013119681
C            4.00308077546316       -2.32625828220876       -3.53739369168502
C            4.32935897343207       -1.57488686604982       -2.43721076622696
C            5.64602251949676       -1.11652456209807       -2.25417190718854
C            6.20400000348248       -0.31503655164192       -1.16712897742730
C            3.48287105534810       -1.15551639743037        0.63342249987715
C            2.11689961338927       -1.33105887759128        0.68196797598831
H            1.12569718750653        1.47895910787710       -0.87847336369240
H            3.58139629527020        1.81148388690206       -0.97631897642987
H            6.64926598198425        3.13387124213179        4.93118504981460
H            4.29530743518821        2.87041363798444        5.63052435395754
H            2.70946688313104        1.67445718623131        4.17805453632864
H            3.43842669449393        0.74744796510253        2.05004245561144
H            7.01582051112956       -2.44292668100013       -5.06782472033831
H            4.69425886287791       -3.23690011626315       -5.34976604559037
H            2.99079038801501       -2.67309847181194       -3.66592299129923
H            3.57137231229648       -1.33351902723127       -1.71938831076477
H            4.14800713312010       -1.88838560419597        1.05494982148457
H            1.68996670358265       -2.20691048610577        1.14237597978025
