84
 energy: -16.765452253198 gnorm: 0.000443881288 xtb: 6.6.1 (8d0f1dd)
C            1.01526031019033        0.33229325600093        0.67680680291438
C            0.29491355188465        1.41489288212227        0.34388586188888
C           -1.12556362866782        1.34959446350457        0.14249981663425
N           -1.84915963212580        0.24424637935240        0.32871835450053
C           -3.10206180344336        0.57953268322452        0.05027587406427
C           -3.16447459624375        1.92746420943927       -0.32022205658782
C           -4.35033332059466        2.69180318922492       -0.69792870455334
C           -4.20074782583378        3.96584240288391       -1.22205667739962
C           -5.30144763611789        4.71128286842221       -1.58063405147004
C           -6.59238521853441        4.22197790453053       -1.42512965377166
O           -7.64494652027949        5.07132711419696       -1.79572785476118
C           -8.88435789561664        4.42849966921762       -2.05226116821074
C           -9.95642543643350        5.39941421800685       -2.42918016876479
C          -10.55034969555254        6.17456813139645       -1.44906872378526
C          -11.51207922696726        7.10604300142189       -1.77827496987419
C          -11.88380697904228        7.27520884622683       -3.09577226899305
C          -11.28876972794825        6.51590668826298       -4.08205553312737
C          -10.32554625452818        5.58528654980541       -3.75082393246067
C           -6.76085255597970        2.92505255317747       -0.86385239871331
O           -8.04371795681783        2.39238379093880       -0.60000100104062
C           -8.35205744780007        2.33637860197247        0.79606004442648
C           -8.77245412527012        3.66193771137049        1.34960260678551
C           -7.83537159640720        4.65809269314340        1.56173227557992
C           -8.22260720945019        5.90558422237471        2.00409963909284
C           -9.55504293185889        6.17015199102457        2.24130922696110
C          -10.49844683088646        5.18652951390468        2.03067152644409
C          -10.10960633054736        3.94162700485607        1.58075627982004
C           -5.63694930786363        2.18745210331914       -0.52845604075704
O           -1.89376537374177        2.41571133357457       -0.26137295331230
C            2.44741155542277        0.30520081643148        0.90755667371854
C            3.10054540909771       -0.91994413991243        1.06330770242324
C            4.46063964189250       -0.97027124153944        1.27716113252055
C            5.19729428495383        0.19078820488224        1.34538589589763
C            4.58093829534726        1.43639568697109        1.20400191021993
N            5.33996981618742        2.63424856477601        1.28541819716214
C            6.66798039076911        2.75840947949475        0.64941435748813
C            6.58588414855171        3.64364440372694       -0.59301978125178
N            5.95294666573443        4.93945191781514       -0.26459355010413
C            6.72202979991458        6.12293372674671       -0.10526310044986
C            7.78520807794779        6.40111909413468       -0.96785180680059
C            8.54242125572796        7.53986601596463       -0.81246738831114
C            8.25958272820104        8.42814715000464        0.20630220587040
C            7.21152224946764        8.17308551927275        1.06854916050836
C            6.44964914730870        7.03701086535312        0.91577251477970
C            4.62016190191239        4.78312947014570        0.34530085959611
C            4.72637871478139        3.93507783972979        1.60640595321313
C            3.20574427176054        1.46994662065413        0.98422439629863
H            0.48745630157343       -0.59976614076925        0.77431272194504
H            0.76693231276622        2.36795036971725        0.20161154403002
H           -3.93206774219767       -0.10760758951482        0.10077732761320
H           -3.20651312840562        4.35970024249653       -1.34512126607344
H           -5.18137677595510        5.69866311687875       -1.98966752608063
H           -9.18079728156414        3.89474325469340       -1.14646506713254
H           -8.72369789742223        3.68480255810506       -2.83941554736277
H          -10.24816824421924        6.04064423269592       -0.42508412564829
H          -11.96989882528890        7.70296278847874       -1.00649653423104
H          -12.63504107156992        8.00330994056610       -3.35493610219170
H          -11.57339755357077        6.65188177091636       -5.11260703876756
H           -9.84885839485615        4.99994173528660       -4.51829444245310
H           -7.47863884078557        1.95493839536934        1.33379054660574
H           -9.14980545493082        1.59723706715554        0.92063438116769
H           -6.79887079380530        4.45455548827905        1.35453112194925
H           -7.48373846021028        6.67487941747056        2.15803351702442
H           -9.85852053174279        7.14463411538895        2.58774680448037
H          -11.54099855514384        5.39243856216233        2.21047200051095
H          -10.84633821953050        3.17846168818001        1.39692733623958
H           -5.77340736476943        1.20568890214625       -0.11647360263675
H            2.52805991125965       -1.82996110346815        1.00897658315108
H            4.94946104942911       -1.92338540935240        1.39630135745147
H            6.25332144792068        0.14651181862546        1.54438473158373
H            7.05160095281017        1.76479389625403        0.39938478548195
H            7.35846715384482        3.18828504168488        1.38125419986285
H            5.98658712669148        3.15841441508690       -1.36921079688271
H            7.57770202518417        3.81264112882612       -1.02194020271001
H            7.99019449882211        5.72940293905943       -1.78235598251083
H            9.35573423137017        7.74151500360330       -1.49032611572888
H            8.85432289239789        9.31869208803657        0.32735189315762
H            6.99196264407363        8.86453439472233        1.86565373258426
H            5.65132664463595        6.83544667901502        1.60713122315430
H            3.97337691578012        4.29010725717529       -0.38689560515881
H            4.17371207667031        5.76414174271446        0.53537670797630
H            3.75767361305050        3.78636684727772        2.09381540592993
H            5.36557953075464        4.43202288265627        2.34258019636572
H            2.72541865437448        2.41951449079731        0.85216635309826
