52
 energy: -11.206325164836 gnorm: 0.000600996264 xtb: 6.6.1 (8d0f1dd)
C            1.12794711578992        0.20472747643726        0.28568510990648
C            0.34185113474890        1.17284050300562       -0.21370480637347
C           -1.09626146276976        1.13069988398180       -0.11312079063244
N           -1.76153729650385        2.17182436828169       -0.67802667117388
C           -3.05238806877767        2.13448151002488       -0.58653303160026
C           -3.74856275444477        1.09933019882545        0.04779392422275
C           -5.15405948299530        1.04862775776336        0.14791995477100
C           -5.75993634891951        0.00422873667883        0.78235706427714
C           -4.99205933286501       -1.02333837466251        1.33803743640208
C           -3.62981811427174       -0.99314971460447        1.25085783723118
C           -2.97193880447795        0.06996565865057        0.60214000323433
N           -1.62504376702979        0.09526742743495        0.51509908632691
C            2.57330593485645        0.17363526841414        0.23696928214789
C            3.25847112370526       -0.91585687606967        0.78447857191690
C            4.62894856570836       -0.97344952640270        0.76164642442512
C            5.37941839215644        0.05569430590971        0.19356510082983
N            6.80740569818548        0.00349557189382        0.17993859662785
C            7.48886919300776       -1.25773236105330        0.09751854222567
C            8.65920654701684       -1.48017981812272        0.81862162103793
C            9.31774239447365       -2.68592513268677        0.73435730258732
C            8.82111967470023       -3.69126103730187       -0.07199767346533
C            7.66250188263621       -3.48549431135060       -0.79508649792207
C            7.00215508689264       -2.28052636485193       -0.71264007027717
C            7.57538847863536        1.21451890569290        0.25808872288333
C            8.74364367566982        1.36395977170436       -0.48476568504967
C            9.48447108192857        2.52119141112903       -0.40306229556886
C            9.07367008925429        3.54969971403848        0.42221274447893
C            7.91812357791134        3.41611152646186        1.16677221655290
C            7.17558037493607        2.25992570764899        1.08678581422496
C            4.69926240950922        1.14259125603687       -0.35569394066549
C            3.32854576394223        1.20179846440758       -0.33646864666730
H            0.63966356228895       -0.62203911720254        0.76982027590350
H            0.77040750024493        2.02096743398660       -0.71277423262965
H           -3.60600971295048        2.94742704775385       -1.02662543697600
H           -5.73927309524150        1.84287759702455       -0.28219118560635
H           -6.83435603033329       -0.03197133289524        0.85671834812226
H           -5.48049069441520       -1.84347908300859        1.83808452493981
H           -3.03213068870296       -1.78000216919911        1.67629881390425
H            2.69393859795630       -1.71624135465429        1.23121963939377
H            5.14450209959275       -1.80989651978975        1.19983331381765
H            9.03646204694589       -0.69525315294283        1.45049280964556
H           10.22152323685476       -2.84619063625304        1.29915524997176
H            9.33762900790941       -4.63483433021861       -0.13773344921890
H            7.27623464097467       -4.26892206205691       -1.42636241624863
H            6.10638976683134       -2.10945156588405       -1.28362047096235
H            9.05377645931996        0.56164155260595       -1.13114776042789
H           10.38580527535173        2.62536383043121       -0.98461016969235
H            9.65463536699278        4.45513104234051        0.48604135721858
H            7.59833419880311        4.21751610927500        1.81249997262150
H            6.28122004240246        2.14469695275521        1.67377277422119
H            5.26980323046146        1.93371069006453       -0.80966654248048
H            2.83057242610207        2.05198716055474       -0.76671066243023
