56
 energy: -11.999056869998 gnorm: 0.000922357825 xtb: 6.6.1 (8d0f1dd)
C            0.98190195010719        0.19027235968871        0.10442751309055
C            0.20444429335524        1.26227177122832       -0.11594657000615
C           -1.23856948817866        1.18877108075262       -0.11861641153292
N           -1.89110084181752        2.32684951835133       -0.38372056419552
C           -3.20011176399922        2.24148542917964       -0.37788635076498
C           -3.86445760552594        1.07436876297612       -0.11901084327612
C           -3.10116274020363       -0.03071286083420        0.13886362316067
N           -1.78942088897091       -0.00208927426501        0.14429160160256
C            2.43040684140718        0.18045542948484        0.12479189069201
C            3.10932590326737       -1.03128181226408        0.27441734467576
C            4.48178826301805       -1.07639936643717        0.29725334430084
C            5.24301537479078        0.08785836002401        0.17610975018071
C            6.71870614934351        0.03758433052881        0.19975291479476
C            7.40992185362911       -1.04143946049617       -0.35740436412089
C            8.78147963552629       -1.09148847061889       -0.33287891736063
C            9.52524414156868       -0.06712969573305        0.25084706460664
N           10.95406320286351       -0.12214602579300        0.27755618485277
C           11.67561058361614       -0.75096975816260       -0.79246496793953
C           12.82596519259567       -1.49194189387430       -0.53402813938374
C           13.52674209825001       -2.08237592753765       -1.56107835226559
C           13.09239561101617       -1.94497399870168       -2.86488780532990
C           11.95328897358313       -1.21319576117311       -3.13790727594429
C           11.25136153976916       -0.62109791377236       -2.11252362710318
C           11.67987834382294        0.45301975687252        1.37471992435104
C           12.88418068456623        1.11800171946850        1.15892308045565
C           13.58654968573563        1.65883278631331        2.21188860994016
C           13.10028364985377        1.54583488906443        3.49965726675411
C           11.90748923163585        0.88875824773939        3.73025770728718
C           11.20343341631897        0.34674991060757        2.67896323553174
C            8.83920367295617        1.01128467816337        0.80748492400291
C            7.46753464156192        1.06395208865714        0.78138023447730
C            4.56447949672999        1.29986913983981        0.03238897963806
C            3.19158408819173        1.34636013552506        0.00539327171773
H            0.48568041700110       -0.74823296120248        0.27564842763643
H            0.64329729972406        2.22243032139687       -0.30950159381309
H           -3.75299820546707        3.14426560954355       -0.58925314917089
H           -4.94082769376423        1.02764968864912       -0.11874711474845
H           -3.57362299030148       -0.97819195087048        0.34960144673484
H            2.53961414821459       -1.93956785139982        0.37186468931540
H            4.98442436902195       -2.01891189548930        0.42814983951352
H            6.85309871195031       -1.83352074952900       -0.82691377734843
H            9.30187350061651       -1.93229733598512       -0.75683350161621
H           13.15499706038893       -1.60077677181537        0.48460781451525
H           14.41590867990361       -2.65260871513121       -1.34745910756089
H           13.64242887820597       -2.40675363531207       -3.66840556589828
H           11.61524354782780       -1.10380315550150       -4.15536215252133
H           10.37137865138802       -0.03780620772770       -2.32011381197981
H           13.25370717848230        1.20803445704840        0.15241835100777
H           14.51736139124561        2.17112433581740        2.03128670224352
H           13.65149692650731        1.96865475313304        4.32355034051321
H           11.52904323045240        0.79821277864674        4.73527569395995
H           10.28053365393044       -0.17818577940639        2.85344889328255
H            9.40556725080043        1.81126391311512        1.25112865128505
H            6.95466779178370        1.89693039012140        1.22961650892632
H            5.13285510766799        2.20716595212455       -0.07677198006428
H            2.69705590403493        2.29468663496782       -0.10492988109822
