52
 energy: -11.198446935713 gnorm: 0.000632690748 xtb: 6.6.1 (8d0f1dd)
C            1.11154394850430       -0.07184536491967        0.27377977421631
C            0.29209505295010        0.93983703791227       -0.08121254135745
C           -1.15753852346157        0.90729592163860       -0.07111873965534
N           -1.77275655601062        1.64724373154662       -0.98111474392762
C           -3.09462844697337        1.53015262078679       -1.03780534313831
N           -3.90366937145265        0.79708364544442       -0.33285013584260
C           -3.31026559426544        0.07892750692318        0.64768520598064
C           -4.09995732188243       -0.70668532561857        1.50873130027870
C           -3.53878514352033       -1.39137709312286        2.54763421271356
C           -2.16728303442496       -1.30374095380995        2.78223634832066
C           -1.37463112097654       -0.55768700081509        1.95853885953194
C           -1.91768217610619        0.12243128892696        0.84810800529595
C            2.55655670236815       -0.03440296589587        0.23420968584589
C            3.28565608255926       -1.14859443068403        0.66456863083009
C            4.65702784504544       -1.14992508035387        0.64094732341130
C            5.36660528699552       -0.03978271041127        0.18322352902152
N            6.79484876242018       -0.04235974203140        0.15749352839048
C            7.51572954391473       -1.27135723226373       -0.02357007221293
C            8.68857643870335       -1.51649671832299        0.68599802857330
C            9.38175048780347       -2.69288717238714        0.51216111499166
C            8.91837913686231       -3.64536667264525       -0.37417088551919
C            7.75907900661590       -3.41532671321149       -1.08879327385469
C            7.06423715294758       -2.23958267483680       -0.91700933529996
C            7.52802938944741        1.18231350745771        0.31600001561747
C            8.68225556264079        1.41809650471239       -0.42655399201720
C            9.38713126187413        2.59075734831912       -0.27615656773344
C            8.95419455613903        3.54878014971530        0.61952797193757
C            7.81395795707250        3.32792722444928        1.36692464606559
C            7.10766387108372        2.15579015533532        1.21883681102342
C            4.64378191462417        1.07295210083670       -0.24708473517960
C            3.27193148178275        1.07927434326392       -0.22095426218455
H            0.66901053032640       -1.01006038506983        0.55544561391194
H            0.72651730895747        1.82832658916024       -0.50176550293535
H           -3.56850183069513        2.12583566025475       -1.80508201406774
H           -5.16074777184640       -0.74560505612492        1.33310555844491
H           -4.15717793108224       -1.98646654033620        3.19938099397676
H           -1.73576787422799       -1.82021216737109        3.62404081841668
H           -0.33178635196929       -0.44488961031627        2.19197992666740
H            2.75370753976851       -2.01285461681283        1.02381994281216
H            5.20488126375684       -2.00725187894348        0.99053077878297
H            9.04015630418772       -0.77290438678588        1.37964046986175
H           10.28683993203308       -2.87122548167387        1.06937349491243
H            9.46136940353627       -4.56647977364904       -0.50879345417054
H            7.39896376291776       -4.15660046785507       -1.78327691411504
H            6.16703294327384       -2.04903291580889       -1.47956418258913
H            9.00987463982689        0.67031644927178       -1.12739658113733
H           10.27734837604902        2.76195997786086       -0.85898350525781
H            9.50605799183827        4.46713719296777        0.73565091217839
H            7.47726403501400        4.07377934524425        2.06822568631861
H            6.22551643657894        1.97251477321098        1.80701261102727
H            5.18223331200586        1.92832551737216       -0.61574178483626
H            2.74299382645580        1.95148253946931       -0.56006323232914
