66
 energy: -14.427798566971 gnorm: 0.000583992622 xtb: 6.6.1 (8d0f1dd)
C            0.17761385325137        2.73517339064896        0.52884090614997
C            0.12485976251011        1.42534277642991        0.15895648771229
C           -1.10417739841855        0.63466625291872        0.02982088782551
C           -2.43759187318816        0.98244501118547        0.21210997992310
C           -3.41169494585029        0.02832078682129       -0.00093935210670
C           -3.07378660007043       -1.26105081633235       -0.39241956432439
C           -1.75431549467976       -1.61953873087161       -0.57981412237790
C           -0.76682395318583       -0.66636041563384       -0.37101891035854
C            0.68934918070758       -0.74981379242214       -0.47448027984395
C            1.51592798490517       -1.82297489983567       -0.77895719292975
C            2.88301168810256       -1.64136874817592       -0.74137627486367
C            3.42507221776194       -0.41126843315079       -0.39354457320316
C            2.61117190459478        0.66021566929910       -0.08949382831705
C            1.23037858603870        0.50386183975413       -0.14510946110680
C            1.35441850245676        3.59999207751451        0.48133537926589
C            1.65920461217244        4.44875234674293        1.55047832990851
C            2.75405378161047        5.27650699876808        1.50450330169684
C            3.58219116473120        5.31265207941196        0.38025278451275
C            4.75597609447470        6.20901551136688        0.33006130392857
C            5.57835003199826        6.37936829231469        1.44620158739112
C            6.66714395755065        7.21519985669834        1.40179795807862
C            6.97096048205091        7.93881953723545        0.24399167497519
C            8.13504565279539        8.82135261429480        0.19988299018057
C            8.16637268676909       10.08621796928201       -0.30444321989288
C            9.38113649458695       10.88231423382602       -0.51164888055093
C           10.71984236299549       10.58131941543508       -0.28932438051383
C           11.67689001323959       11.52694034300698       -0.59677946901441
C           11.31688413271067       12.76191772982542       -1.12132897393140
C            9.99194343057012       13.07341079059387       -1.34960280485142
C            9.02152052254461       12.12811781152527       -1.04635124443311
C            7.56458199161476       12.17274133284080       -1.16217426696889
C            6.71967476484801       13.19231719935758       -1.57960710842746
C            5.35604118404451       12.98946783220686       -1.52770587296798
C            4.83526708541599       11.79220769301660       -1.05516451930544
C            5.66748026501110       10.77409541174047       -0.63831424709342
C            7.04539501191191       10.95017745252983       -0.70545908754467
C            6.15842916751444        7.75055274945266       -0.87939699112132
C            5.07604030613473        6.90718984940542       -0.83624760475738
C            3.26333694010313        4.48596568614064       -0.69913152097557
C            2.17470721264127        3.65087242417015       -0.65101027032165
H           -0.73870576417361        3.18817966878319        0.86901996892029
H           -2.69758188114345        1.98260760125907        0.51043791302412
H           -4.44872184449442        0.28732268117117        0.13701363766737
H           -3.85124579420546       -1.99013953374390       -0.55208393773796
H           -1.48349347685715       -2.61603023145916       -0.88140922258950
H            1.08616918556734       -2.77740875607910       -1.02733910489778
H            3.53703138796624       -2.46601426328104       -0.97309940795540
H            4.49571854714757       -0.29381235747274       -0.35451465173003
H            3.03496202289399        1.60068864862575        0.21039520399946
H            1.02567382126870        4.43565910827193        2.42075823548912
H            2.97455173122617        5.92411127575345        2.33547546449401
H            5.35732116137192        5.83043661343878        2.34528428303598
H            7.29508863237887        7.33407646953544        2.26809418359170
H            9.05764408179818        8.42182749237676        0.58687573558640
H           10.99700482396082        9.62287426833058        0.11252560039323
H           12.71783407964300       11.30394986395972       -0.42871480209583
H           12.08127385370527       13.48548884201531       -1.35298923875366
H            9.70397072694636       14.02787077254658       -1.75381061596430
H            7.13277961874876       14.12367201056774       -1.92493652112037
H            4.68793143687382       13.77273324932429       -1.84645818815091
H            3.76681468149872       11.65891130620980       -1.00767449662228
H            5.25978031370457        9.86194184989957       -0.24371072308492
H            6.40035406627649        8.27514944024690       -1.78792312171064
H            4.45097242872128        6.78889832394941       -1.70443615280951
H            3.89281006763945        4.49997957784536       -1.57207208588534
H            1.93202932653368        3.02847094858491       -1.49531750453419
