29
 energy: -6.146626876873 gnorm: 0.000315417472 xtb: 6.6.1 (8d0f1dd)
Br          -1.47210527446975        0.48166725918176       -1.03439788267562
C            0.32728025403035        0.21956067165339       -0.52286596445434
C            1.00058127353869        1.20719944093257        0.16597218310091
C            2.31369835455866        1.01846882385215        0.54506305329847
C            2.97907087665393       -0.16865087351027        0.23737353033414
N            4.31138751464780       -0.35020671581375        0.64474365797130
C            5.14846548841455       -1.45524222132020        0.41347678500150
C            6.43277058333281       -1.43159430281908        0.99019793880784
C            7.28638498448507       -2.46638527370168        0.80814472528448
C            6.86531296065304       -3.55640201230532        0.02968996401112
C            7.68513140772495       -4.67743044457804       -0.21454659865694
C            7.23560490592813       -5.71052032736762       -0.98277910060409
C            5.95376129873184       -5.66819396822824       -1.53751957934975
C            5.13933214348296       -4.59714584015304       -1.31471500075883
C            5.56457020936781       -3.50894843197963       -0.52442015738945
N            4.71977955747507       -2.46724703182082       -0.32541989657563
C            2.28150502178343       -1.15067608627938       -0.46147508023003
C            0.96912421772697       -0.96011363900994       -0.83684456323147
H            0.48599014300076        2.12406647394611        0.40298197574885
H            2.83813214561745        1.78842744438836        1.08306734173265
H            4.71438614517917        0.40870859581705        1.18743285171412
H            6.72484335847511       -0.58115876979575        1.58101502954713
H            8.26979100045747       -2.46489961298442        1.24536655680105
H            8.67175608417497       -4.70615649904806        0.21450801634770
H            7.86894515639357       -6.56313014184806       -1.16471957798431
H            5.60886359007020       -6.48833172676216       -2.14554487007966
H            4.15207397761126       -4.56089308015221       -1.74062087525570
H            2.78388983490926       -2.06608500759596       -0.70522050850845
H            0.43255278604509       -1.72378670269829       -1.37574395394649
