126
 energy: -26.375839610574 gnorm: 0.000468704451 xtb: 6.6.1 (8d0f1dd)
C            0.93503776429371        0.99079349573054        0.00137355325337
C            0.19802463703483        2.10715874398747       -0.25173778935716
C            0.79521017477992        3.30995164937678       -0.87309522021502
C            1.32613377536512        3.27970935986642       -2.16200493327944
C            1.89281889406081        4.40728751119097       -2.71217414863425
C            1.93346978610334        5.58218290330758       -1.98880940496059
C            1.40635593724988        5.62794656133922       -0.71317405103669
C            0.84101917908848        4.50021625501572       -0.14333127087989
C            0.23652895646855        4.51511645335550        1.22268769871416
C           -1.29210176612375        4.45003556016067        1.17368889848373
C           -1.92711182191819        3.16891884557800        0.68385496538373
C           -3.29616089284122        3.05788482506332        0.88403146513630
C           -4.00606570282701        1.94568119886033        0.48386183901187
C           -3.35262950447729        0.90810373035080       -0.14055999261910
C           -1.99786205215131        0.99162555013550       -0.35956043002358
C           -1.25591048234647        2.10646689898345        0.04017811778243
C            2.37022326669185        0.82163706898466       -0.17325395569654
C            3.27002499992172        1.88998402051982       -0.12043729593984
C            4.61950106839697        1.69265725129712       -0.28292735275320
C            5.13530834508443        0.41615959166830       -0.50199096371363
C            6.58754916024842        0.20729731118586       -0.69604663915444
C            7.51525281746797        0.87808593168163        0.09468221345727
C            8.88406916920548        0.69803215195251       -0.07844958611276
C            9.85645017379745        1.41404567366564        0.77689441783084
C           11.02694668540622        1.94983282930658        0.24080545073360
C           11.93256310806454        2.60837812294378        1.03770436742683
C           11.71649494037184        2.75199724251505        2.41145329152526
C           12.69236952568826        3.46966239842547        3.21738882118508
C           12.88934932435301        3.37779900483596        4.56142776790818
C           12.16355735116643        2.39380417332587        5.39472845677582
C           12.33553230638221        1.02076795097141        5.22365603271059
C           11.63623612777368        0.12596434520340        6.00193683873812
C           10.76040676279469        0.58609532679238        6.96470376013894
C           10.58440559262249        1.94346191755365        7.14848512407958
C           11.27444985988190        2.85523890304022        6.36848058739516
C           11.13350334428360        4.33096718904583        6.55393539323743
C           12.37304167950994        4.94803701424840        7.20711230587059
C           13.65750481737792        4.96124587677906        6.41005274266550
C           14.68484005518631        5.73584529058796        6.93062450086204
C           15.91237363665689        5.83483468537768        6.31031060370786
C           16.14401265308210        5.14617673014435        5.14155390651905
C           15.14811007018072        4.36533310773126        4.60426786731709
C           13.89509331555896        4.25158482812623        5.21273159198752
C           10.53373966359324        2.22706491755991        2.93972107093001
C            9.62717081034158        1.57146377974961        2.14294185662769
C            9.31735757071359       -0.17429519209751       -1.07207629963833
C            8.41761026444341       -0.86050440130717       -1.88198581032730
C            8.89795751591736       -1.78104690845746       -2.93622677026074
C            8.27771200830509       -1.82903667798985       -4.18432498638964
C            8.72528715470182       -2.68297937512073       -5.16373308518903
C            9.80763184173971       -3.53852071446540       -4.93768429520073
C           10.26535861460562       -4.41122491864649       -6.00822261392089
C           10.98766294208168       -5.55940710825578       -5.89233784354080
C           11.30905119089717       -6.15210563621247       -4.57523713219389
C           10.31236700284216       -6.62737727694877       -3.72393189588826
C           10.63627230903611       -7.16153119342254       -2.49709936649372
C           11.95731745300393       -7.23430683284476       -2.10325536332340
C           12.95511939961953       -6.77198517034951       -2.93865761346718
C           12.64447338585358       -6.22542870835398       -4.17183415077483
C           13.69507229988561       -5.73982098906179       -5.11644504817188
C           13.86900985782162       -6.67909324785433       -6.31300069752847
C           12.73033847346564       -6.77982211611023       -7.30230286276209
C           13.01495250328340       -7.44599827813535       -8.48620862722025
C           12.06976194795143       -7.61455709988700       -9.47596190364146
C           10.79881576982492       -7.11824117792821       -9.29709559646171
C           10.48411702731840       -6.45967422633321       -8.13199741065919
C           11.42551174311673       -6.27364577722487       -7.11595217878114
C           10.43369518552371       -3.47568650322231       -3.68961485957265
C            9.98817737273435       -2.62039361667835       -2.71156640576713
C            7.05594768280810       -0.65911496125163       -1.67875912744547
C            4.24471223617174       -0.65628695413191       -0.53645682944327
C            2.89489149701397       -0.45935279709135       -0.36899361269869
H            0.40728954513360        0.13385651780053        0.38258171508893
H            1.29222758750485        2.35835660532541       -2.71757062203471
H            2.30483220802538        4.37215208174977       -3.70752642425310
H            2.37448957486756        6.46558975853303       -2.42106573855519
H            1.42997814750147        6.54587777328431       -0.15117402669338
H            0.56918428952232        5.41500776799264        1.75461093449673
H            0.62546370046818        3.66969710440594        1.80166789361804
H           -1.65567364010814        5.26950421100378        0.54250764830576
H           -1.69191753429084        4.65857570351718        2.17430110262803
H           -3.81486190637510        3.86894032872655        1.36714975060936
H           -5.06866201256169        1.89019102392421        0.65682055248514
H           -3.90138777930224        0.03733085202564       -0.46092527295248
H           -1.49296078267215        0.18915952762064       -0.86968486352324
H            2.89743251872897        2.88204991107266        0.05843697319088
H            5.29377995830521        2.53134194688316       -0.25732333044054
H            7.16609517551920        1.55129597338103        0.85624783581974
H           11.20963193156128        1.85326274351858       -0.81555734046915
H           12.83036557571819        3.01756280932813        0.60663715758725
H           13.31604008270542        4.16410189924050        2.68161866884934
H           13.01883850240633        0.67139530560777        4.46878956676021
H           11.77299417430754       -0.93361402248133        5.85937777267157
H           10.21524666043474       -0.11484200941126        7.57563175252518
H            9.90772199953228        2.30343911631058        7.90453589020067
H           10.23765204247930        4.53531894697011        7.15329434621100
H           10.95195255618160        4.80367780652254        5.58186583639571
H           12.56723139069595        4.42363839779595        8.15024042965191
H           12.14856423446782        5.98317781256961        7.49464995205541
H           14.51222320030812        6.27310718671476        7.84819475349511
H           16.68862254694721        6.44664719071888        6.74063168535354
H           17.10254737257857        5.21461113071147        4.65306295065607
H           15.33833623105131        3.80932235293811        3.70208231141035
H           10.32564088910983        2.34888129385546        3.98678555036499
H            8.73158270340619        1.15813569005887        2.57387099360320
H           10.37204461191558       -0.32092848981783       -1.21754201120390
H            7.44720074854742       -1.17294658232107       -4.38042770693058
H            8.23620960485163       -2.70440955572813       -6.12271824653718
H           10.01442477909534       -4.09369034957207       -7.00543626576423
H            9.28485851389526       -6.56510322681087       -4.03870213227226
H            9.85831333258904       -7.52326859084447       -1.84466817898071
H           12.21056258332460       -7.65506339675531       -1.14379120585751
H           13.98634242777065       -6.83616399969325       -2.63609628762545
H           14.64176474912775       -5.62379907595499       -4.57434557986951
H           13.43182409346071       -4.73561376971724       -5.46806868286588
H           14.07841513981444       -7.68740532349875       -5.93653316217299
H           14.76891359355573       -6.38722263232407       -6.86945637685489
H           14.00642483002906       -7.84150531457393       -8.63056594300583
H           12.32446162980891       -8.13517503736220      -10.38486738492832
H           10.05315061559295       -7.24996980111067      -10.06437117838922
H            9.48285340151433       -6.09249646597436       -7.98434531626872
H           11.28725584379793       -4.09950025774172       -3.49769097304578
H           10.47348261722008       -2.60207857908188       -1.75090649649729
H            6.34916495421120       -1.18361684430276       -2.29558446625534
H            4.63024225622994       -1.65015753312281       -0.68571790230593
H            2.22092876589568       -1.29846222993395       -0.39915099384455
