53
 energy: -11.586355798593 gnorm: 0.000800236608 xtb: 6.6.1 (8d0f1dd)
C            0.81473020094107        0.06509177687578        0.16981542373268
N            0.10022420643987        1.12856670220476        0.03934504607021
C           -1.28779067965734        1.13591490533846        0.12299925324942
C           -2.02116178446820        2.03565614902640       -0.64880953980194
C           -3.39236775504322        2.05756481315695       -0.58762103129399
C           -4.08519983467624        1.18953405892778        0.25155666966624
C           -5.54744870460367        1.23886504469509        0.29145533982520
C           -6.37331356849017        0.47131275488099        1.09358260955089
N           -7.66035179645353        0.86519507370532        0.78786875406799
N           -8.90189746049928        0.50407678775902        1.23868484791944
C           -9.81074450319253        1.19726577301066        0.62044020497437
C          -11.21669308855823        1.04879506844266        0.87103647443032
C          -12.22169765959030        1.73682839156906        0.25196481083336
C          -13.51918888013189        1.37881409927947        0.70418368004102
C          -13.51067786144706        0.42489204848127        1.66213846884468
S          -11.89429539203737       -0.05956109384199        2.03517180111814
S           -9.17149194033879        2.35774631490158       -0.57367802425654
C           -7.54768869816677        1.84767967195818       -0.18087593759770
N           -6.29023137557419        2.08268918924732       -0.48916882714205
C           -3.35236963120070        0.29793213374177        1.03356591542145
C           -1.98065093228184        0.27206233166734        0.97114121284737
C            2.24116371465100        0.00924932612668        0.12424142044980
C            2.90773154589743       -1.25475173432343        0.18786601209646
C            2.21513725768671       -2.48798751733331        0.27599637067270
C            2.87890980337471       -3.67648598257531        0.33620467869434
C            4.27724377925889       -3.71517126242350        0.31140625204079
C            4.98868428886161       -2.56160170754044        0.22331715564325
C            4.33354694625722       -1.30537141183313        0.15679775432799
C            5.06972507920648       -0.12758510584391        0.06057850179605
C            4.44797099537135        1.11577987324678       -0.00808300612431
C            5.21385995914090        2.30641510475521       -0.10363461792286
C            4.60997920347244        3.52211417426202       -0.16568351481093
C            3.21407004669380        3.61439664479071       -0.13613978203760
C            2.45211763274530        2.48994131444408       -0.04594757660350
C            3.02446312743534        1.19941394060412        0.02153817276249
H            0.27266321486923       -0.85145040555638        0.29413423567839
H           -1.48977204366195        2.70707563834386       -1.30016898173742
H           -3.95601648242707        2.74861782780185       -1.19011441000465
H           -6.10388037562830       -0.27800544281898        1.81586498868223
H          -12.03745416391098        2.48068748624281       -0.50751956208471
H          -14.42300530285394        1.82559256219636        0.31606269132709
H          -14.38025878786079        0.01128374510880        2.13676353978608
H           -3.87120511986954       -0.37457751715260        1.69350066090856
H           -1.42556423909074       -0.40402116347715        1.59680289015553
H            1.14158102631801       -2.50125297157180        0.28901805622954
H            2.32534717881545       -4.59891083929753        0.40179720935360
H            4.78691674496838       -4.66338813146205        0.36047180403334
H            6.06449698409642       -2.58817622539268        0.20131665825870
H            6.14313862140010       -0.17954901156586        0.03798998505877
H            6.28744689426644        2.23263898415318       -0.12485793218849
H            5.20349407568217        4.41871388426918       -0.23738328942446
H            2.74370866366587        4.58276116525241       -0.18543469511620
H            1.38486687023520        2.58301276357612       -0.02555882244968
