46
 energy: -10.644146374435 gnorm: 0.000445585763 xtb: 6.6.1 (8d0f1dd)
C            0.83839916468512       -0.00743780575203       -0.08055963688769
C           -0.51663335634567        0.01567355779529       -0.07462593470999
C           -1.73626425839059        0.04325220449497       -0.06923876232912
C           -3.14274727524390        0.07054531590546       -0.06910403452160
C           -3.80209556732506        1.29751510970718       -0.06926355489356
C           -5.17481309892113        1.38038548489253       -0.07111935348753
C           -5.96083634414133        0.22628738962296       -0.07340700920266
C           -7.38922511306500        0.27782235748569       -0.07681708768142
C           -8.13169062201487       -0.85164171327701       -0.08038567811751
C           -7.51582815321760       -2.14217703727308       -0.08050862339925
C           -8.25935637357595       -3.32340600314343       -0.08494346374915
C           -7.63223258640826       -4.55199389467204       -0.08476095352672
C           -6.25566976672785       -4.64100283385845       -0.08011363539851
C           -5.46581466511193       -3.49020537292337       -0.07581749742135
C           -4.03710380581042       -3.54234003916660       -0.07166673253495
C           -3.29549320404519       -2.41254753122786       -0.06934286643029
C           -3.90326979152958       -1.11795611351401       -0.07036783706948
C           -5.31834155048408       -1.03434768632287       -0.07307072718628
C           -6.10185264503572       -2.22537844784839       -0.07623415210606
C            2.05777110320920       -0.02171864972397       -0.08578085194660
C            3.46712174654905       -0.02685581536521       -0.08966893093432
C            4.14455650095150       -1.22179931782499       -0.08867455594328
C            5.54113939709056       -1.26768392404704       -0.09017550580095
C            6.27041192492837       -0.11755250705397       -0.09276356255340
C            5.62860343945501        1.13995433526560       -0.09522454442403
C            6.36008014961090        2.34953991614790       -0.10088389534564
C            5.71816826102004        3.55057137784675       -0.10582765561162
C            4.31971581911070        3.60513080076454       -0.10501199709047
C            3.58474389207875        2.45810301486705       -0.09906012680748
C            4.21334801997754        1.19271802316140       -0.09406012155703
H           -3.21069811464818        2.19735783284297       -0.06832698712520
H           -5.65852055102191        2.34189918645967       -0.07134619092472
H           -7.86845998294695        1.24150904836383       -0.07684008399557
H           -9.20640964889281       -0.79450145686158       -0.08332686371014
H           -9.33409724931949       -3.26435775707112       -0.08872702261208
H           -8.22452002888182       -5.45242330388301       -0.08841262652957
H           -5.77576767214752       -5.60444275744885       -0.08000894302898
H           -3.55781357426226       -4.50596923662749       -0.07057151830112
H           -2.22129217580329       -2.47297245174467       -0.06646435896649
H            3.57907125777892       -2.13815734139964       -0.08636301652329
H            6.04153688900842       -2.22220777894674       -0.08885747091439
H            7.34616401830282       -0.15438774990061       -0.09343593685625
H            7.43567392212632        2.30742813298681       -0.10173842004450
H            6.28719070216868        4.46589408999951       -0.11071185927271
H            3.82433403108092        4.56229031752281       -0.10933024755358
H            2.50970693616190        2.50344703070555       -0.09883916496066
