80
 energy: -16.471367606617 gnorm: 0.000791911842 xtb: 6.6.1 (8d0f1dd)
C            0.77041688165918       -0.65649909636031       -0.25929946202761
S            0.02800762007178       -2.15048115570467        0.24326117611143
C           -1.65644202272790       -1.71668206779677        0.04506722086152
C           -2.62887664651858       -2.30762542689840        0.74190968130074
C           -4.04988216359211       -2.00817742197336        0.61773576869377
C           -4.94644552199438       -2.47338843631873        1.58175145387704
C           -6.29138593962494       -2.20459077470000        1.48720945001596
C           -6.80220860282553       -1.46627451637366        0.41909631575399
C           -8.24975848978128       -1.18314509348144        0.30965141655673
C           -9.00423538935532       -0.84395747295465        1.43323309342893
C          -10.34779518692291       -0.57275653521360        1.32694927121611
C          -11.00016456110160       -0.63616574060331        0.09404571860024
C          -12.42442376604127       -0.33902059196853        0.01217357972269
C          -13.19303625682709       -0.54121282068246       -1.05959361239840
S          -14.89270836674319       -0.12735605145469       -1.07001768814117
C          -15.39684876369502       -1.00258947690861       -2.48963787939671
C          -16.69204277171423       -1.20673128390713       -2.81363061646057
C          -17.78075865713202       -0.66524650744485       -1.96860770048060
C          -18.90055563148506       -1.44002760309652       -1.66952142511038
C          -19.90752786016683       -0.94607389009428       -0.86989329204736
C          -19.81661319397941        0.33041063980891       -0.35233978295365
C          -18.71692233558985        1.11336882082957       -0.63953570269746
C          -17.71093980207590        0.62264934537352       -1.44022850673064
C          -17.04002507733218       -1.99664606310457       -4.01619719646948
C          -18.14507769240835       -1.65277313475524       -4.79381475728689
C          -18.47556771500442       -2.38326710774421       -5.91390919135877
C          -17.71130935793042       -3.47285416206656       -6.28010858107378
C          -16.61542643063665       -3.83130252924061       -5.52104338556299
C          -16.28168816636659       -3.10235520617211       -4.40057908948856
C          -10.24424092845398       -0.97617838627416       -1.02973541756986
C           -8.89960313326470       -1.24156957092133       -0.92356461243264
C           -5.90780219830104       -1.00672480323112       -0.54809804437265
C           -4.56203951163165       -1.26942821755865       -0.45081535540774
C            2.07810053811513       -0.37651207851373       -0.07036263675630
C            2.62010431840308        0.93898445122008       -0.47916659316841
C            3.90474931346715        1.04250007960298       -1.01115827911742
C            4.41648918358340        2.26435001838459       -1.38905775462411
C            3.65763717425685        3.40809231650576       -1.24245990538902
C            2.38447575163082        3.32643230909382       -0.71519071223258
C            1.86941645140510        2.10588386169645       -0.33695283885831
C            2.98218890820911       -1.36005811352280        0.56804474604581
C            3.91906205434587       -0.95236489852238        1.51661485908050
C            4.75122473018895       -1.86596002652134        2.12505300773873
C            4.66457747378647       -3.20466369454980        1.79966498660389
C            3.74491414303731       -3.62703507541605        0.86121697018835
C            2.91414737184916       -2.71556275154338        0.25046850606553
H            0.13546483558557        0.06798592436035       -0.72908797270942
H           -1.88104242540914       -0.94272417390924       -0.66139118525241
H           -2.34564920951990       -3.05640781670412        1.46209349661045
H           -4.56944992828647       -3.04780860107874        2.41062728722613
H           -6.96914592232406       -2.57945534190743        2.23462044590427
H           -8.51623147470712       -0.77952206561429        2.39041933212298
H          -10.91356700386786       -0.30842923866918        2.20397443994499
H          -12.89008616288164        0.07118527808262        0.89218915369553
H          -12.78683915468612       -0.97048668162346       -1.95317269480815
H          -14.62494514440963       -1.39579196364874       -3.12061612359786
H          -18.96477302632655       -2.43814576943841       -2.06760799431567
H          -20.76594429928504       -1.55829878316538       -0.64625092155166
H          -20.60465087303212        0.71598903336887        0.27389936442541
H          -18.64655206204776        2.11177835571408       -0.23944661981617
H          -16.86307119952539        1.24105456164045       -1.67792561983264
H          -18.73755926587161       -0.80039698664601       -4.50885388036452
H          -19.33186730223546       -2.10258566335448       -6.50525545764822
H          -17.97024528376700       -4.04397557167227       -7.15678150757133
H          -16.02113424795600       -4.68491105242675       -5.80392221855445
H          -15.43782170444339       -3.39594836675198       -3.80054456351089
H          -10.71643699429330       -1.02007035182293       -1.99492090913275
H           -8.33469016125007       -1.51235813340923       -1.79888017604182
H           -6.28414889650972       -0.42688253616873       -1.37317153951981
H           -3.89640875838127       -0.91270138083788       -1.21656875862212
H            4.49359193967284        0.14895685039175       -1.12801426485284
H            5.41093258620045        2.32668582130387       -1.80006548430520
H            4.05872769344551        4.36403011973563       -1.53761698902934
H            1.79317023205877        4.21973485570368       -0.59591379940224
H            0.88390533120366        2.04809522251808        0.09181070502376
H            3.97838517774976        0.09103168673027        1.77476082585483
H            5.46915437726540       -1.53492547514217        2.85766342561159
H            5.31628304270443       -3.91889628280698        2.27613110145375
H            3.67944644069753       -4.67151117877674        0.60307051633201
H            2.21066907164511       -3.04422835294364       -0.49440861603926
