24
 energy: -4.915116117503 gnorm: 0.000406169487 xtb: 6.6.1 (8d0f1dd)
Br           1.07083068965313        0.19687268712794        0.04213821874232
C            2.95513162019802        0.15632331160063        0.04390772919597
C            3.68722286317922        1.28621569270335        0.04439060466707
C            5.08687659835289        1.25453635113051        0.04569666528617
C            5.78502027588434        0.08801083581741        0.04656962862008
N            5.18569031275260       -1.13902675731582        0.04625394067144
B            3.72189415185103       -1.13772256133141        0.04484687280832
C            2.98086870527051       -2.46242526632637        0.04419145381263
C            3.69387085959917       -3.58809084670118        0.04496234357188
C            5.12672840779359       -3.58614399767367        0.04641549673439
C            5.82036977730034       -4.80584246322101        0.04720281191791
C            7.18797942657022       -4.84063413187817        0.04863769634235
C            7.90863902771649       -3.65562275875366        0.04934307035536
C            7.25542424824063       -2.45121889474893        0.04858859171215
C            5.85789099875351       -2.38047176045252        0.04709461244646
H            3.17233616662383        2.23384981747162        0.04373559409344
H            5.62454677345552        2.18888075743020        0.04600977925162
H            6.85804220903972        0.12836489249325        0.04752733547705
H            1.90891381893760       -2.43982160730699        0.04311448054685
H            3.18848355740312       -4.53882846061291        0.04450543419397
H            5.25844841172527       -5.72412658525754        0.04666464186962
H            7.70577500377296       -5.78583180017011        0.04922785257854
H            8.98610585785570       -3.68450226589238        0.05049221560496
H            7.83431023807058       -1.54633418813224        0.04918292949947
