66
 energy: -11.791473585902 gnorm: 0.000517347146 xtb: 6.6.1 (8d0f1dd)
C           -2.57504099447288       -0.40719597174364        0.40473868491260
S           -3.19379633306830       -2.02151150405069        0.73623259530006
C           -4.76141645810689       -1.58024634083808        1.38069271902617
C           -5.42516031298981       -2.39029457259993        2.20762464309230
C           -6.73227964962434       -2.12198837479637        2.79337843943893
C           -7.22515553679120       -2.96480765914602        3.79126397154175
C           -8.45552339597459       -2.74386856965885        4.36237014972391
C           -9.25305484670745       -1.67293482066051        3.95746633026614
C          -10.58039412136153       -1.44399806634289        4.56861306238065
C          -10.78239140962827       -1.64095126805017        5.93506531765698
C          -12.01860387786447       -1.44412702708637        6.50258182668597
C          -13.11164521994758       -1.04768474010666        5.72964005681705
C          -14.41254329702108       -0.87152157166560        6.36178404068859
C          -15.56086359738478       -0.64386205302279        5.72190366842071
S          -17.07713936219307       -0.47573732767154        6.57745004011934
C          -18.14562314375554       -0.45092380888127        5.17268440162517
C          -18.32223455964849        0.60654524144869        4.38342028599504
C          -19.26008303419028        0.55607356278777        3.20669469874480
C          -20.28117098144839        1.71127368908624        3.26274290663294
C          -19.57730973988486        3.07095393621037        3.44513347075097
C          -18.66091609288746        3.07649287710243        4.68517133831416
C          -17.63767939035518        1.92296045179893        4.62986005904561
C          -12.90756392299556       -0.84329743405106        4.36328291954554
C          -11.66913205513342       -1.03568595568072        3.79694165808507
C           -8.76378331649647       -0.83248452222086        2.95658020708115
C           -7.53046480560623       -1.05009966836229        2.38810898826942
C           -1.37760072936119       -0.16790157028480       -0.12590007574905
C           -0.88268752904199        1.23778936375659       -0.34094234291203
C            0.49127857578811        1.44757890147301        0.32955578880115
C            1.49503714997739        0.35722169963961       -0.09683031321604
C            0.94975531096790       -1.05866423727632        0.17805532111493
C           -0.42175970048219       -1.26864765703538       -0.49621750722333
H           -3.21238753689739        0.41473972594900        0.66732335721139
H           -5.16824572409442       -0.63216420174772        1.09077785107291
H           -4.95372998245930       -3.32031720824602        2.47738066771981
H           -6.62521375845240       -3.79905531366217        4.11297315275917
H           -8.82383945751289       -3.41272915050371        5.12103153961686
H           -9.95038765346166       -1.94036473494528        6.54885598593408
H          -12.15625808071773       -1.60254958201503        7.55867306463952
H          -14.44792714828671       -0.95440569476849        7.43489469296303
H          -15.59712035875129       -0.57050886055646        4.65343651382602
H          -18.67118582813127       -1.36461265195941        4.96936972049882
H          -19.77047704903077       -0.41466749646869        3.17626079975214
H          -18.67589220966552        0.61476279087042        2.28082572085556
H          -20.96961440757651        1.54442071657208        4.10045650425328
H          -20.91071602090240        1.71712737147018        2.36190909442597
H          -20.31448567498199        3.88407321437650        3.50413583724021
H          -18.97670460178466        3.28772209675926        2.55293874255790
H          -19.27385159195915        2.97187227966199        5.58900996864597
H          -18.15020584993110        4.04427083495873        4.78694027243270
H          -17.05709798514038        1.87396421773418        5.55904535103791
H          -16.90823329278077        2.10316743474298        3.83155967621874
H          -13.72878071843141       -0.52725383628701        3.74489315625955
H          -11.53318300020037       -0.88763654529356        2.73947345256666
H           -9.36225979296652        0.00394929319533        2.63903139439864
H           -7.18065870084336       -0.39131848233925        1.61325061711542
H           -1.61784151661725        1.95638608969260        0.04231981296595
H           -0.80962476933829        1.43117132026710       -1.41756906497300
H            0.36904211711033        1.42075336994753        1.41946489818030
H            0.88512561144893        2.44821613631007        0.10283731538506
H            2.46245737198282        0.50374184714607        0.40383479907894
H            1.70433251183274        0.46027430809732       -1.16887937866538
H            0.84522344638025       -1.20308349662662        1.26052530364692
H            1.66672753973203       -1.82312067506258       -0.15265401711435
H           -0.84692180334560       -2.24165075271678       -0.22181627837535
H           -0.30616770651458       -1.29078936659970       -1.58620787508040
