72
 energy: -12.685332141985 gnorm: 0.000437689498 xtb: 6.6.1 (8d0f1dd)
C            0.77219024130762        0.44071644814810        0.16509430255407
S            0.09129627002560        2.02320072267891       -0.20235563967563
C           -1.60456475931024        1.63992535697398        0.00731154794417
C           -2.56354695366747        2.36402060422511       -0.57307599623028
C           -3.99540938837332        2.11439820346530       -0.46459956106840
C           -4.88141599742001        2.79575654617202       -1.30137913487023
C           -6.23576421073944        2.57036814782592       -1.23460477235274
C           -6.76794824132369        1.65801212463061       -0.32268034511906
C           -8.22449057427921        1.40963557982702       -0.25750915051995
C           -8.99706270236871        1.36779016840569       -1.41872477550192
C          -10.35025254055759        1.13379155752263       -1.36010382345548
C          -10.99567264826508        0.93532234254461       -0.13800448396966
C          -12.43205341427001        0.69110682642339       -0.11477093417310
C          -13.18695759357590        0.59280554697206        0.98117313227980
S          -14.90857173562508        0.29383447897065        0.88186461805816
C          -15.35153298871015        0.70320528824914        2.53637375919031
C          -16.57029279002253        0.53197119405704        3.04796481900400
C          -17.69843038054618       -0.00017254169891        2.22065177920111
C          -18.87088145690506        0.97844180040233        2.07218845135219
C          -19.63024050612481        1.20480745832694        3.38893376536620
C          -19.07527389498936        2.32622031753023        4.28153778403561
C          -17.54461537221217        2.36527956256326        4.45347072284171
C          -16.86450855304641        0.98832490296580        4.44554529363547
C          -10.22209893471256        0.97654220868889        1.02397484204123
C           -8.86761452870827        1.20700179690643        0.96432052947462
C           -5.88412445563133        0.98445337941520        0.52158481139804
C           -4.52866744831637        1.20572242295967        0.45193675572677
C            2.07593533720225        0.16600277737824        0.13184784150912
C            2.56668822020561       -1.20311415097156        0.49757844703510
C            3.59476374874348       -1.21932006103112        1.63726842435371
C            4.93490397734322       -0.57705569009430        1.24586622176546
C            5.02128225665897        0.93901808290543        1.48108021864112
C            3.78647703129629        1.75410067099209        1.05834931722397
C            3.08152745876537        1.22627011392563       -0.19986762320938
H            0.07427503984673       -0.33156152085121        0.42453596316685
H           -1.84616810183547        0.79126840500462        0.61535677537725
H           -2.25851611263447        3.19149853430644       -1.19121159060872
H           -4.48838180527988        3.50254787950518       -2.01227453478397
H           -6.90328624677255        3.11161036061992       -1.88272780777933
H           -8.51592631427728        1.50503015506940       -2.37175503415423
H          -10.92984347507918        1.10173635777650       -2.26700929920580
H          -12.92301149383407        0.58924528470431       -1.06789829319877
H          -12.75849808597598        0.69545729166349        1.95771385681575
H          -14.57924746129035        1.13085296666822        3.14614604995630
H          -18.05314880514307       -0.93717755925112        2.66568409244074
H          -17.31546076737213       -0.27938881335079        1.23168200780823
H          -19.56154903515804        0.59638253724917        1.30711459948269
H          -18.51046559862778        1.93767474432338        1.68234377449145
H          -19.64044561689527        0.26023604992815        3.94766569138025
H          -20.69030173284985        1.40883132630907        3.17971149193865
H          -19.54632744139361        2.24755407914944        5.27148396281354
H          -19.41408184822179        3.29709410986997        3.89440678603291
H          -17.29405364896971        2.90996575740767        5.37481678777225
H          -17.09739299157376        2.96371173253263        3.64855042352173
H          -17.49198842974972        0.25134715012191        4.95892179249818
H          -15.92612805593326        1.01563878792535        5.01411469386373
H          -10.69050037771416        0.82094856547138        1.97946464790641
H           -8.28923260654477        1.24794736787033        1.87121228306334
H           -6.27607327043751        0.26903565147421        1.22384877778658
H           -3.87066935927775        0.67615107875393        1.11782494809651
H            2.99866486912220       -1.67211625933417       -0.39423263428413
H            1.70686580266874       -1.83075653564593        0.76351061384058
H            3.76114442196163       -2.25865740870013        1.95430900513929
H            3.18485175455878       -0.71205535373859        2.51856155918715
H            5.12743643702063       -0.79842037467478        0.18823921151327
H            5.75946433153786       -1.06908559999565        1.78163681918542
H            5.90563928211324        1.32472441198419        0.95477317606403
H            5.22812542343121        1.13058518677531        2.54298422992847
H            4.07075214266200        2.80757998654298        0.92552415242982
H            3.05197477641059        1.76649813191092        1.87451210023593
H            3.81667892185962        0.83765945715879       -0.91338636236064
H            2.57223300777573        2.04219188922223       -0.72768586185040
