70
 energy: -14.294446550177 gnorm: 0.000747796625 xtb: 6.6.1 (8d0f1dd)
C            0.93479295569020       -0.10539173957756       -0.66824581135829
S            0.13689986838981       -1.53717241599454       -1.26062304197976
C           -1.53250744686352       -1.06293180966846       -1.03310941329240
C           -2.51329261002966       -1.96579075977221       -0.97713954746576
C           -3.92911266730856       -1.66600647414983       -0.80460981356706
C           -4.82370519345266       -2.69581358463352       -0.50787655382349
C           -6.16382272013234       -2.44319422721782       -0.33751896291120
C           -6.67511472806344       -1.15020605417098       -0.46425296238242
C           -8.10038099571277       -0.91661884406422       -0.27094173603846
C           -8.73484105764976        0.23607067144476       -0.49098402531314
S          -10.45357173625997        0.40336011150981       -0.20710757513071
C          -10.74097611081578        1.91848907839481       -1.01932906837866
C          -11.97671354885658        2.38086696905608       -1.30801285464748
C          -13.18320415938538        1.61574710009390       -0.91851350402389
C          -14.25300602267730        1.47803981175677       -1.80197020770396
C          -15.36928255784266        0.75162950696199       -1.45042946961488
C          -15.44016115675330        0.14753759141673       -0.21129288775073
C          -14.39219219155035        0.27513592229034        0.67783418816518
C          -13.27714910158399        1.00293767741432        0.32992315020870
C          -12.13954125022305        3.65564189645596       -2.04258111731324
C          -13.20300820487552        4.50927808761306       -1.75207755112647
C          -13.36495473775094        5.69473978503026       -2.43474049918343
C          -12.46948058152591        6.05224956442497       -3.42243972589550
C          -11.41153029402856        5.21935711134313       -3.72647772729059
C          -11.24659554117757        4.03311598405628       -3.04537854601032
C           -5.78154307151926       -0.12077485617390       -0.76740152597362
C           -4.43977728185866       -0.37268605889328       -0.93271029740373
C            2.25733146351352       -0.05516816940554       -0.39844649420249
C            2.86058358946906        1.18403192805562        0.14115108466275
C            4.15764563358427        1.55188853209668       -0.21445756242178
C            4.72858044321756        2.70246639174843        0.28322102646084
C            4.01695319661115        3.50964585927130        1.14749523254253
C            2.73260790382393        3.16124786443650        1.51408414556387
C            2.15877960711879        2.01092506974989        1.01815214277502
C            3.12035366818711       -1.23802719247630       -0.62087511703994
C            4.08016236797442       -1.60565064136413        0.32122619072391
C            4.87328805762771       -2.71457047592405        0.12464921259382
C            4.72364661674774       -3.47943210674440       -1.01467891645458
C            3.78015663893017       -3.12995758862609       -1.95950418080384
C            2.98882306314664       -2.02065664321868       -1.76673013572755
H            0.32632868885393        0.76272160301711       -0.51150789949393
H           -1.74022884595117       -0.01633224064777       -0.93418749923049
H           -2.24044081028202       -3.00478119485902       -1.05414888156187
H           -4.44825954912180       -3.69980544871318       -0.40628300001843
H           -6.83737504065567       -3.25019006581419       -0.10460824180618
H           -8.68738012761805       -1.75022619741871        0.07544619631613
H           -8.20853001768787        1.09497142390436       -0.85443431089861
H           -9.88081822195234        2.49255481798023       -1.30052122400130
H          -14.19124265525484        1.94275625326180       -2.77100150357370
H          -16.18740609962742        0.65262193822361       -2.14512450964435
H          -16.31333632358415       -0.42220058530925        0.06229079023188
H          -14.44822629278003       -0.19360316862378        1.64683774351767
H          -12.46936373092994        1.11633592579896        1.03163468752533
H          -13.89851238479420        4.23080334308758       -0.97918083095248
H          -14.19188372153570        6.34385429235081       -2.19709245312198
H          -12.59691723266544        6.97976397149920       -3.95657123040923
H          -10.71454837536438        5.49625024089472       -4.50060649605272
H          -10.43220890066989        3.37685978498267       -3.29896587526895
H           -6.14568508312031        0.88630149210903       -0.86597802553129
H           -3.77549735264488        0.43714987024123       -1.17715580896620
H            4.71004805895964        0.92399685545121       -0.89206820057225
H            5.73186750297240        2.97285561447356       -0.00304087182032
H            4.46395402030317        4.41016081218773        1.53623575414965
H            2.17804491317365        3.78943202489160        2.19190159340103
H            1.16464627197962        1.73279888747821        1.32215588570752
H            4.18878531851759       -1.01237011193049        1.21287029245486
H            5.61027602216832       -2.98672353925309        0.86259641011232
H            5.34405861094297       -4.34757447956162       -1.16728348714354
H            3.66531301073467       -3.72441440568821       -2.85125139017997
H            2.26705824148157       -1.73883058655729       -2.51338715464481
