31
 energy: -6.341785641200 gnorm: 0.000708012422 xtb: 6.6.1 (8d0f1dd)
C            0.95926785088053        0.08064557957179        0.42857497880820
C            2.39704701080060        0.11870884412130        0.07303370538388
C            3.02993166437056       -0.84712280165693       -0.62804146277279
C            2.45877392726016       -2.05224692790603       -1.21470158755615
C            1.16193236823027       -2.09434521195015       -1.74021367341857
C            0.66606386193835       -3.24610548842187       -2.30119680696756
C            1.45340535413254       -4.38588408512420       -2.36088513415740
Cl           0.82835410018167       -5.83128759042084       -3.06239312530525
C            2.74690720041574       -4.35935098589063       -1.86274255974323
C            3.24447827145830       -3.20766611331848       -1.30374543417148
C            3.17136345923530        1.25608271332479        0.53399886249199
N            4.46510154769414        1.40164396214849        0.28707173446776
C            4.81421885569509        2.56910826589393        0.87311583669243
C            6.05203605002024        3.22874769397459        0.92538118970174
C            6.13472747996425        4.42075459385142        1.58957870200850
C            5.00962198826883        4.98532094912883        2.21081350893161
C            3.79172886591679        4.36500256833476        2.17237052229917
C            3.67369932112093        3.14222313213832        1.49794990962778
O            2.62941962403826        2.28863732211443        1.27305389619129
H            0.62378379737328       -0.93896291251861        0.62089971207067
H            0.34748072784159        0.51094193741547       -0.36448655439374
H            0.77901805271800        0.66423145239710        1.33236137454162
H            4.09331621165636       -0.72679147046402       -0.74408156961102
H            0.56142853575076       -1.20278140145563       -1.73995698900417
H           -0.33013518144581       -3.27838075318802       -2.70858407222841
H            3.34857061238744       -5.25038795095638       -1.92266152349104
H            4.24825782533838       -3.18718379392723       -0.91552025230725
H            6.90668602044293        2.78747699079295        0.44488264954484
H            7.07901041777067        4.93729046049962        1.63841686681667
H            5.10948843323467        5.92614182089391        2.72642744169184
H            2.92469574531078        4.79153920059586        2.64338985385748
