34
 energy: -7.538666652585 gnorm: 0.000953999062 xtb: 6.6.1 (8d0f1dd)
Br           1.20765319833574        0.05403979008764        0.02237223740036
C            3.09265154818578        0.05476095716679       -0.03808390975404
C            3.79423106773728        1.27454173165467       -0.09830411041380
C            5.15112538915017        1.28279592167482       -0.13812676811487
C            5.83618322925319        0.04572372092526       -0.11287776203140
C            7.19896082156898       -0.21054019064637       -0.11907074137057
C            7.35780633594308       -1.59866884045672       -0.05575800097672
C            8.52883751422442       -2.41813569757547        0.00006127343727
C            9.82982802611925       -1.90408112837941       -0.03793252296494
C           10.90868773398983       -2.74351269205536        0.03010431709679
C           10.71734097271115       -4.11672427049274        0.13944207321716
C            9.45280784969020       -4.63759681295361        0.17851956723245
C            8.32341414244333       -3.80838054707323        0.10973246292197
N            7.07521249427238       -4.38532258053868        0.14989746128520
C            5.99914005164527       -3.62299324903322        0.07042182022027
C            4.70973630948141       -4.31702838271135        0.08093172160889
C            4.55730632081812       -5.63186391054917        0.50176358723898
C            3.22084814531385       -5.96439712155868        0.34370300192057
C            2.59715834003487       -4.85318914012001       -0.17160245438183
O            3.48995267248827       -3.84352273030816       -0.34031544900665
C            6.09471531897649       -2.20142062916895       -0.02345079393475
N            5.14289803666628       -1.16988406197969       -0.05406343908217
C            3.75042283349715       -1.12538842951199       -0.02145934155730
H            3.23510252351473        2.19544920596922       -0.11254614109581
H            5.70793404510466        2.20186860281309       -0.18235376530681
H            7.98299556392059        0.52486726540133       -0.14922384035804
H            9.97198805403351       -0.84098724604811       -0.12154257610273
H           11.90807077960800       -2.34186193660472       -0.00054397336491
H           11.57065156873471       -4.77259102626716        0.19311251480029
H            9.29947823689984       -5.69918885192348        0.26222101758860
H            5.34494276626925       -6.26531537753387        0.87429910128389
H            2.76251945686868       -6.91251370418140        0.57220864264243
H            1.54653591801855       -4.77636860503203       -0.42502434841576
H            3.19643273448090       -2.04350003298955        0.00361913833848
