31
 energy: -6.453833702064 gnorm: 0.000873088385 xtb: 6.6.1 (8d0f1dd)
C            0.98640785608638        0.38725001463538        0.35673027672791
C            2.42168437375365        0.11761658331998        0.10306005484542
C            3.00721803329728       -1.10034954547727        0.16253842134645
C            2.37653508567399       -2.38649950147167        0.42556669679953
C            1.06616333815827       -2.68216827240362        0.03191010002810
C            0.51511932134659       -3.91514042305555        0.28389747900601
C            1.25852100024202       -4.89103068071314        0.92915579488708
Cl           0.56324595885965       -6.43493627923542        1.25011031132833
C            2.56391880307569       -4.62402966476452        1.31211389016465
C            3.11633442265350       -3.39245917751871        1.05847603040326
C            3.22310538183341        1.25811499212503       -0.19521282339342
N            4.50757759511423        1.33881044432444       -0.46943574575412
C            4.90189452836103        2.64825597752280       -0.70671668052956
C            6.21256307635037        3.06474801244129       -1.03085423907201
C            6.46877826321228        4.39252855845002       -1.23936629324657
C            5.45357625542515        5.35650280281164       -1.13799868720504
C            4.17221957211232        4.99464947664032       -0.82755684140611
C            3.90604631430210        3.65037388128841       -0.61584893404955
S            2.54738771325196        2.78128905753283       -0.23130385388845
H            0.59928959668781       -0.22816823554183        1.16967037339421
H            0.38997839302167        0.21681405638774       -0.53979160445887
H            0.85851407885184        1.43677548366087        0.63377488572148
H            4.07528381986673       -1.11908474375673        0.02905776285313
H            0.49743264844990       -1.94901526725691       -0.50998787141416
H           -0.49160086304667       -4.14427919355191       -0.02198085489991
H            3.13111500729210       -5.39425692842806        1.80607584058081
H            4.12951788810940       -3.18555023827261        1.35746198226652
H            6.98929528681128        2.32528983324941       -1.10944248276667
H            7.46913719379881        4.70702486240374       -1.48660124393043
H            5.68829017358633        6.39432933984343       -1.30788986268709
H            3.37591988345982        5.71291477481140       -0.74462188165069
