30
 energy: -6.363122012293 gnorm: 0.000987046833 xtb: 6.6.1 (8d0f1dd)
C            0.88882925987823        0.22719359245882       -0.15175863763503
C            2.36382737081095        0.19037856605994       -0.01730062126694
N            2.97773917993948        1.02790114268830        0.75864944990095
N            2.36983433186842        1.89265671486617        1.57623258095555
C            3.08328714286136        2.87760505273959        2.27247460820099
C            4.43742115236328        3.05301931819370        2.01116571219623
C            5.16050480759796        4.01244489589034        2.67742123308426
C            4.54834913717101        4.82487235839209        3.62726588631417
C            5.28304620693058        5.80550657954728        4.30795016894641
N            5.89320727316270        6.62208441661125        4.86575414434665
C            3.19286516488686        4.64706486037005        3.88929688813924
C            2.46843012216772        3.68774154064416        3.22312261420145
C            3.16237450195392       -0.77949003412894       -0.74167190570682
C            2.55929388867009       -1.78483800958320       -1.50106223705864
C            3.33540424168153       -2.68917241011814       -2.17304496145580
C            4.70050153181154       -2.57324270284619       -2.07023099091911
C            5.22002703364883       -1.56127104914483       -1.29931960727094
N            4.49824876835292       -0.67467986872150       -0.64126855257695
H            0.49718267437159        1.21062702973783        0.10504811371312
H            0.41945417341763       -0.50952466528255        0.50048763452016
H            0.58014258246675        0.02804008538236       -1.17789211811705
H            1.42654535675040        1.67051188334414        1.89057821224592
H            4.90146484841654        2.41506032524062        1.27941541866582
H            6.20904298545871        4.14641159405183        2.47314935255828
H            2.71951370098947        5.27457545962814        4.62515991573281
H            1.42096472628386        3.55434679554776        3.42880647733345
H            1.48750324405686       -1.86011088327913       -1.54634948020237
H            2.88925279537466       -3.47232859266977       -2.76365052983702
H            5.35059518810766       -3.26427460367072       -2.58111320353454
H            6.29089660854866       -1.46295939194788       -1.20873556547787
