32
 energy: -6.284767509294 gnorm: 0.000960660831 xtb: 6.6.1 (8d0f1dd)
C            1.01248442562763        0.20011529067216       -0.21372428801342
C            2.46306679898490        0.15792343319014        0.06418927681647
C            3.19461269573885       -0.94038630888480       -0.11766812379840
C            4.61338940794033       -1.05158770777204        0.13122680193444
N            5.34602326163772       -2.00644460122714       -0.39743586180952
C            6.63513902613248       -1.84501491299122        0.03797460425149
C            7.72583961439640       -2.60446876388534       -0.28014509918079
C            7.72672256109915       -3.72523599453071       -1.16633232712441
C            6.56203458774028       -4.15889864074324       -1.81440382923516
C            6.57653341934817       -5.22855096967552       -2.66570490158229
C            7.76691952316540       -5.92513452789726       -2.91373537005109
O            7.81685950019775       -7.00039566314427       -3.76715505648816
C            8.93367581992642       -5.49804457488059       -2.26642323130595
C            8.91592544862739       -4.42657956477321       -1.41599375037319
C            6.68680253001421       -0.69489824440558        0.94197126402884
O            7.65399465269097       -0.26809342619640        1.54891611087691
N            5.38727349101158       -0.21863597641103        0.96079538704662
C            4.98440958477639        0.85829047258253        1.84772277204128
H            0.59404587791410        1.19611815256673       -0.05522465470067
H            0.47276282224367       -0.49212032094157        0.43478266992698
H            0.80628966321925       -0.08372201311031       -1.24710095430186
H            2.94728839253622        1.05785250858978        0.39976725944531
H            2.71199314943784       -1.81834987231397       -0.50938585146063
H            8.66024612858771       -2.32359776883417        0.17120459238446
H            5.64441330131842       -3.63269370525384       -1.63108127469884
H            5.67362082818077       -5.54575484872170       -3.15627148202021
H            6.92792216527164       -7.16924254708232       -4.14913482310039
H            9.84563603641979       -6.03436567030614       -2.45859321463251
H            9.82169230869652       -4.11045948229796       -0.92782035615064
H            5.76755820564049        1.01743055705342        2.58711651418359
H            4.06268836004745        0.60143901592586        2.36514197695287
H            4.85182641142168        1.77892667570368        1.28395522014728
