36
 energy: -7.061781254457 gnorm: 0.000459658781 xtb: 6.6.1 (8d0f1dd)
C            1.08883597548392        0.17678596265852        0.05508930447509
C            2.53095671209998       -0.06623485092696        0.26989040584202
C            3.32893712321012       -0.56039703706427       -0.67783050631588
C            4.72413354504686       -0.82540263340712       -0.47610617251113
C            5.52671273173302       -1.31282477948757       -1.43976524131176
C            6.92156125657450       -1.60821893208172       -1.30755940498969
N            7.65976785004154       -1.94985050127886       -2.34811894885279
C            8.93424988599953       -2.17366550729078       -1.91149688550543
C           10.02270432436288       -2.53606189411526       -2.65682565556682
C           10.02805847483667       -2.74471446035695       -4.06892535533567
C            8.87090454231386       -2.59399609629163       -4.84623138107480
C            8.88922783665447       -2.79455586202606       -6.19815593589251
C           10.07618814029158       -3.15912532439366       -6.84893886201771
O           10.12939000036998       -3.36482865509694       -8.20563698886174
C           11.23581305658038       -3.31247810598876       -6.07697386489752
C           11.21401726849292       -3.11104855311336       -4.72432858077870
C            8.98099177727957       -1.96786872421435       -0.46230464649670
O            9.94116875769165       -2.09961034857392        0.27658101686658
N            7.68847191026649       -1.60402406449482       -0.12560855923514
C            7.30108643558483       -1.40724712671234        1.25976469891940
H            0.65795798290249        0.79851934349442        0.84238052251043
H            0.53499068736133       -0.76322591785846        0.03242516109150
H            0.91647765250047        0.68536647816220       -0.89479311985257
H            2.95007439606769        0.13200360003495        1.24273205168500
H            2.91097580399950       -0.77777207531533       -1.64543279467281
H            5.13286615257982       -0.60111025320265        0.48972079272081
H            5.10129192935593       -1.48987400334021       -2.41139755813543
H           10.94873443006703       -2.67129592535339       -2.12723113034775
H            7.95662620092814       -2.31457747009475       -4.35773825209113
H            7.99164965883766       -2.67389230097434       -6.77789426024601
H            9.24440592211867       -3.21380370608498       -8.60352201428509
H           12.14508715833664       -3.59212019128466       -6.57844802808713
H           12.11385961104475       -3.23294391392690       -4.14640108943119
H            8.13605078805607       -1.68654322516427        1.90052929193510
H            6.44841890975034       -2.03510620817755        1.50925568134826
H            7.06459511117867       -0.36093673665340        1.44039630940005
