35
 energy: -6.969491423264 gnorm: 0.000999874440 xtb: 6.6.1 (8d0f1dd)
C            1.10645545894953        0.05144552490487        0.13269950995372
C            2.54808590097124       -0.26339387669200        0.04892288918702
C            3.34810482725426        0.25414604519339       -0.88519592961290
C            4.74079877708958       -0.06374416552378       -0.99446080486872
C            5.54815276886375        0.47659094506763       -1.92755103063182
C            6.94004817507350        0.20094589197326       -2.09792409007716
N            7.68725547176023        0.88762451281912       -2.97575905693672
C            8.94399113318306        0.40913637981818       -2.91912110205053
C           10.04456825553352        0.83245943458095       -3.64463981718241
C           10.04689375017916        1.86837243399190       -4.59064860393833
C            8.87297767897181        2.59701625830307       -4.90991208004440
C            8.88234110964042        3.59466705349656       -5.82224235487512
C           10.09129869143499        3.95633904626507       -6.50563976203249
O           10.11186065328801        4.86536102042450       -7.33798304284622
C           11.27596140970038        3.21526826417413       -6.17759152346914
C           11.24751136092259        2.21859704303744       -5.26251406932005
C            8.99414920051082       -0.67379626278883       -1.93730854584293
O            9.95668729793720       -1.35079640070429       -1.62831281533913
N            7.69509240265425       -0.76012643580153       -1.44423551074395
C            7.34150142827978       -1.79655844917443       -0.49029170502626
H            0.67846063634252       -0.24894530736609        1.09118476133074
H            0.55054379342334       -0.45954406235527       -0.65523811773238
H            0.93396125217452        1.12285625525242        0.01824901538718
H            2.96544872286011       -0.96788514000701        0.74928194612671
H            2.93237106550862        0.94377560901638       -1.59872431777373
H            5.14571489678201       -0.75405034030202       -0.28057883222494
H            5.12672589476341        1.19572196831889       -2.60700521360617
H           10.97076780064109        0.31856433132440       -3.45575853854362
H            7.96054946006391        2.33915928345447       -4.40675432174417
H            7.98875729793018        4.14253954211627       -6.06048457261100
H           12.18642709916016        3.48026634282152       -6.68379430087849
H           12.14682353910373        1.67454354186113       -5.03091680244773
H            8.19879612854304       -2.45397867347116       -0.35324762809191
H            6.50782593934955       -2.38764771012200       -0.86314374314154
H            7.09024072115630       -1.35428990391496        0.47127011164830
