27
 energy: -4.779654068646 gnorm: 0.000865192369 xtb: 6.6.1 (8d0f1dd)
C            1.09133321366528        0.12560046038629       -0.00973162614250
C            2.55753423674105       -0.03566806057357        0.08750513618686
C            3.28592095286426       -0.56687700267107       -0.89039845145128
C            4.73762063177653       -0.75706992240408       -0.84394312216488
C            5.46276479897134       -0.82152404735917       -2.02690937613317
C            6.84512375054896       -1.00532290038190       -2.03306604317803
O            7.48550230661083       -1.05510678325926       -3.27827178853423
C            8.87958961916478       -1.22620449749880       -3.21732381285094
C            7.49287705412236       -1.12766289303232       -0.80805866191442
C            6.80028170478996       -1.07621645632418        0.39824022647212
O            7.54987694229488       -1.21759498662635        1.57379043555755
C            6.79732895491600       -1.18729004750247        2.76206114546802
C            5.41793602368904       -0.89088990992432        0.36060969248193
H            0.68150133018988        0.67481336791054        0.84078636161337
H            0.59535303795347       -0.84559508456625       -0.04697378583859
H            0.81946761517147        0.67114785550046       -0.91470736606133
H            3.05277892132414        0.29487177583513        0.98485814433455
H            2.78439256707901       -0.87156662622339       -1.79228605332647
H            4.95763083722708       -0.72399631475347       -2.96993725545872
H            9.27004869424772       -1.24728709821747       -4.23519517524005
H            9.11644887965416       -2.17116408475006       -2.72774490160298
H            9.33229725853872       -0.39159414923895       -2.68105531426091
H            8.55507034844606       -1.26981274636585       -0.76502130589327
H            7.47717893655153       -1.31528864081894        3.60500141617732
H            6.07391412416802       -2.00345206305757        2.76472187827029
H            6.29230740959375       -0.22533252797862        2.85803546460720
H            4.86115984969974       -0.86781661610439        1.27699413888263
