27
 energy: -4.324049905744 gnorm: 0.000769349107 xtb: 6.6.1 (8d0f1dd)
C            0.35270402922147       -0.33795052471565       -0.29841790726014
C            1.82458568398093       -0.34480703642965       -0.16220422199274
C            2.63791697935082       -0.57827624617710       -1.18892668609337
C            4.10724056443566       -0.58746612297050       -1.10679128114749
C            4.79049497753188       -0.08813827471178       -2.21744180783706
C            6.11800270328757        0.02166318147051       -2.41459774756151
C            7.14637928488555       -0.31102814396859       -1.60388408425935
O            8.37457073788910       -0.05919211587257       -2.08784056190818
C           15.40801005446891       -0.75924605835526        0.37679768188401
C            6.00290675939078       -1.21521223457852        0.33491672539178
O            6.67446493317673       -1.71517735384828        1.39613379834669
C            5.83698413223353       -2.24894573491040        2.39306568893251
C            4.68632974306572       -1.10897820353692        0.05124182392412
H           -0.14700887027138       -0.18879767500719        0.66102303090207
H           -0.00383402290225       -1.28288789231286       -0.71200796228135
H            0.02771732441773        0.46020523756483       -0.96811633751468
H            2.25505604206405       -0.11987623463787        0.79964753826702
H            2.20033978844343       -0.76028990869925       -2.15562388043854
H            4.17336167559142        0.26458359969344       -3.02714367029543
H            8.47545187388713        0.88761697880655       -2.48788806292832
H           12.82256654486177       -2.42270088620132        0.05822816559882
H            9.13354780677131       -0.27202848991308       -1.41721213188791
H           15.54070776459788       -0.19093071412432        1.21693668148349
H            6.46173269480376       -2.64926918594261        3.19280233855020
H            5.23200328628486       -3.05559131110110        1.97635912840283
H            5.19728346607516       -1.46356284973901        2.79842026858452
H            4.00562403895799       -1.48764580133946        0.79176347409058
