23
 energy: -4.182374765449 gnorm: 0.000804883302 xtb: 6.6.1 (8d0f1dd)
C            1.07562637219843       -0.04326096029076       -0.03252342364264
C            2.54757242200852       -0.17673663739644       -0.08689664582097
C            3.31848399655024        0.68189165774704       -0.75135212342936
C            4.77357450663878        0.60558457929666       -0.86124202227110
C            5.49199453979523        1.71160925536569       -1.31717296901179
C            6.85833534852643        1.66788665340000       -1.43449207209465
C            7.57818993315827        0.51536993023510       -1.10645926023176
O            8.96681922543677        0.55591334111910       -1.25698691982979
C            9.63104876064237       -0.64156206417061       -0.93115757729609
C            6.85708040506139       -0.59376396401478       -0.65380596111225
C            5.48922207418073       -0.54808841123739       -0.53587265683595
H            0.62652569209700       -0.73833360382524        0.68033376871166
H            0.63095682584087       -0.23720456600332       -1.01064023783554
H            0.78692816406351        0.96575570840436        0.26824247126589
H            3.00561710870056       -1.00470523610326        0.42723365744742
H            2.84086154945944        1.50882777141482       -1.24687551928987
H            4.95824626965065        2.61035876341248       -1.57497859875565
H            7.40663073801102        2.52441521178899       -1.78445564740145
H           10.69951171854843       -0.50144705878788       -1.09727247641155
H            9.27794049132530       -1.44990807281995       -1.57231389032441
H            9.46611787926096       -0.88458495812931        0.11889491671049
H            7.37871822488255       -1.49731632427707       -0.39580821844104
H            4.95888775396257       -1.42174101512824       -0.20064859409950
