40
 energy: -4.833251674209 gnorm: 0.002920263998 xtb: 6.6.1 (8d0f1dd)
C           -1.29901604003726       -2.12998411884402        0.53900331530127
C           -0.12221865460574       -1.93498481780897        0.49738733857212
C            1.22150286510623       -1.70715357252525        0.44223895331670
C            2.14007867082063       -2.28099278325325       -0.31155957092913
C            3.43763407533858       -2.02899005299455       -0.33341512948424
C            4.10365297919243       -1.13750620413682        0.38493236578161
C            5.39894782297625       -0.89219431018387        0.36942575433350
C            6.31868890010280       -1.49738347777203       -0.36914556306797
C            7.65018338443408       -1.30614535357989       -0.42298206919558
C            8.03337011506803       -0.40394814510908        0.51530709263035
S            8.29309316928019       -1.16135711231008        1.98325684786442
S            7.30385165624718       -2.75065368289243        2.46577080884130
C            2.03182373234313        1.79252179162232       -0.03217996359146
C            1.11870443987240        2.00517637155860        0.84181640522315
C           -0.17861323637847        1.80638066444022        0.70571715657890
C           -0.79758502634741        1.35057327489051       -0.35411743615668
C           -2.04089228302440       -0.28910780960729       -4.35000071551219
C           -1.65531153143476        0.92555095251876       -4.77516159599027
C           -0.39546972835163        1.18390595134981       -4.40542086992480
C            0.52149184307775        0.57303028875814       -3.61704176717379
C            0.28782803112388       -0.53586902813961       -2.91526217590187
C           -4.02829700406721       -0.33836463910416       -1.07227609963682
H            0.89660071332709       -5.14424120541459        1.21898383758480
H            5.38511365464445       -2.45565449812510       -3.25092959697457
H            7.27139140335407       -3.35393579898843       -1.82002986257875
H            8.04902162717137       -0.50008698997524       -2.04096418637961
H            8.96768969134054       -2.59712434435434       -0.29168843387951
H           10.23516738936181       -2.50193803284600        3.98370002704776
H            3.72869502834766        0.45931723356016       -2.01891781307957
H            2.46391504215484       -0.14491516859290        2.52807253377056
H           -2.50303861992720        2.05651401740789       -5.61902773181030
H            0.37745764604807        1.92580581018579        7.54802762151739
H           -6.61049210887333        0.43761396419843        0.85059063777613
H           -1.83415036276512        1.18853360086509       -0.39222702584875
H           -3.07439924518006       -0.39279839546370       -4.53619154189536
H           -0.95114831292577        3.12906580132318       -9.32675117454403
H            1.49287802164855        1.03583950352709       -3.54658188263833
H            0.98857379048108       -0.99239151102655       -2.27959130272618
H           -4.62748040689928       -1.12933116763093       -1.32434713844328
H           -0.76325313571698       -0.13980700260111        2.70024995316732
