78
 energy: -16.336482289415 gnorm: 0.000542777632 xtb: 6.6.1 (8d0f1dd)
C            0.85791771764650        1.37369256877417        0.08614304147806
C            1.48672123145274        0.17267702891237        0.05405634628918
C            2.93568309718659        0.06259350634267        0.23362737207662
C            3.66227889382769        1.03591350483004        0.93337720803260
C            5.01935333702287        0.92456434011951        1.10099192406644
C            5.72085759443462       -0.15872517344503        0.57243920834556
N            7.13715432928766       -0.26778684106610        0.74084160191794
C            7.75725920952739        0.19777511106833        1.94963950390302
C            8.99327769455626        0.83809976501517        1.91560973774588
C            9.58894946884172        1.27743281563016        3.07660458251697
C            8.96200792246778        1.08467951416593        4.29243645236971
C            7.73553562755974        0.45106479057338        4.34264163216785
C            7.13778084735840        0.01147090651541        3.18286108954743
C            7.94812975569053       -0.82798183071816       -0.30337865605080
C            9.05568739175719       -1.61557364341509       -0.00008359775860
C            9.83948121887861       -2.14116892839621       -1.00274548311784
C            9.53221872393883       -1.89009447220304       -2.32593810009123
C            8.43677351344224       -1.11057103084820       -2.64300511701496
C            7.65166080051323       -0.58409044074343       -1.64197884026884
C            5.00495710027056       -1.13225430184118       -0.12381494107326
C            3.64653298176044       -1.02828428198766       -0.28512766854322
C            0.67113080139847       -1.06486324894961       -0.21426057008106
C           -0.80959768829823       -0.93289404357146        0.20231855362464
C           -1.38805634799316        0.43491828850770       -0.04865186078160
C           -2.83278264363200        0.59121924461292       -0.22784175532615
C           -3.37027226299905        1.69269950971212       -0.90795573308165
C           -4.72503169803401        1.83446707264340       -1.07077281270474
C           -5.61207349488337        0.88867152638074       -0.55732027769101
N           -7.02460630297992        1.04496299116410       -0.72002000000241
C           -7.55007875386477        1.64453897825316       -1.91458721816116
C           -8.64422689500411        2.50400276244179       -1.85871207277488
C           -9.15091973975848        3.07136522912654       -3.00635861103407
C           -8.57507521879155        2.79052301202035       -4.23033484165369
C           -7.48893146019731        1.94004308824298       -4.30210589948715
C           -6.98038895872900        1.37186677798954       -3.15574341578433
C           -7.92388422649787        0.62448862482628        0.31743336251994
C           -9.15963705992172        0.06413869752543        0.00437364990127
C          -10.02671187796047       -0.32592019408937        1.00031156019040
C           -9.67635884098360       -0.16366181787405        2.32662323657544
C           -8.45406626127497        0.39090414809404        2.65339974786733
C           -7.58554544723739        0.78162641630638        1.65907068198113
C           -5.08521404965678       -0.21165202764856        0.11840945883402
C           -3.73035638812812       -0.36058508814408        0.27524947355651
C           -0.55273109960251        1.50313539019022       -0.06382311392529
H            1.44402911716937        2.26955166522222        0.19218148406217
H            3.14252950846773        1.87039190312190        1.37016346544450
H            5.56476402022526        1.68172602975883        1.63684113056360
H            9.47247118514671        0.99187664711326        0.96448736503965
H           10.54548285005913        1.77259829335512        3.03659212563523
H            9.42953545137063        1.42786613322634        5.20094616582524
H            7.24654928717316        0.29880637191038        5.29106418410624
H            6.18745209492093       -0.49223624740238        3.21575794719859
H            9.28555271925315       -1.81294361797258        1.03242826740353
H           10.69403682172665       -2.74935224783763       -0.75460658759203
H           10.14699540038277       -2.30089163853079       -3.11019967369471
H            8.19760529536546       -0.91222489649933       -3.67510083856568
H            6.80429293213379        0.03417261886857       -1.88198847986369
H            5.53713745625276       -1.97710165768697       -0.52484487081235
H            3.11827401284610       -1.78653310162626       -0.83637750676317
H            1.13108947256705       -1.91558757405427        0.30400993377881
H            0.73364000563079       -1.29655722609312       -1.28413823932353
H           -0.91391327916229       -1.16328297819378        1.26924037858313
H           -1.41507319566013       -1.67992402263031       -0.32611512712507
H           -2.70762111175866        2.42612258494771       -1.33245909290405
H           -5.12355214144022        2.68852360568971       -1.58997872339802
H           -9.08303758474543        2.72463304089831       -0.90125393508909
H           -9.99779888393469        3.73566749808816       -2.94941860245136
H           -8.97291652980661        3.23441638216464       -5.12833990141405
H           -7.04008842129647        1.71910804988917       -5.25686678529862
H           -6.14136810171309        0.69991494937099       -3.20558243212999
H           -9.42380052173989       -0.06533013423641       -1.03066853637355
H          -10.98033453896093       -0.75827613663745        0.74451653224179
H          -10.35624500525863       -0.46794649072546        3.10568226719108
H           -8.18099740682132        0.52034845652121        3.68800857721092
H           -6.63752293232743        1.22625623331079        1.90697125300531
H           -5.76236181644675       -0.95139540664932        0.50844527581459
H           -3.34895152678493       -1.21124387986684        0.81263707282630
H           -0.96723717522849        2.49149854814611       -0.15659293223085
