41
 energy: -6.689591166888 gnorm: 0.004047603391 xtb: 6.6.1 (8d0f1dd)
C            1.42766994961226        0.64635542758731        1.58836894630987
C            1.36349248073395       -0.27601224171001        0.66236409584807
C            2.46412783687673       -0.51008386696138       -0.30440279423180
C            2.96404547401541        0.53560031596645       -1.07650711198889
C            3.98374416365578        0.31929470721328       -1.97825882523692
C            4.52276913761903       -0.94344546419408       -2.12370708913922
C            4.04227699490075       -1.99013482445973       -1.36307651872383
C            3.02287581819430       -1.77657085611066       -0.45998534654173
C            0.09452725793640       -1.05063168798634        0.66044019724085
C           -0.95543460892999       -0.84826126231616        1.69778076762435
C           -0.82749126389935       -1.37051867919816        2.95205200668864
C           -1.77107210500973       -1.19401122748232        3.85820640927604
C           -2.86174582181456       -0.50637694738296        3.56502829842046
C           -3.01704849794060        0.01595963663747        2.36047858928217
C           -2.09071241027784       -0.13911148238298        1.43363311806512
C           -0.00844752874599       -1.91403118219823       -0.33336234980084
C           -1.17516451282702       -2.69184745721035       -0.42340412095762
C           -2.23398308455871       -2.12059844428800       -1.11317984789019
C           -3.57158725879508       -2.25225298414361       -1.00603412535568
C           -4.33014734630507       -2.98072788726841       -0.09856575388395
C           -3.93535270945804       -3.70670840381455        1.01450308747357
C           -2.69145773409952       -3.81898105767120        1.49166545421214
C            1.46041097226467        3.78285814664658       -0.29978275259980
H            2.26261624935479        1.27140857626551        1.71381821603556
H            2.53796512630110        1.51749073297073       -0.96150617384564
H            4.35966997430725        1.13759897990974       -2.57064696908103
H            5.31871824503587       -1.11196785712004       -2.83095932791985
H            4.46360356610862       -2.97617017525902       -1.47542734137970
H            2.64553315831485       -2.58994241803948        0.13586368677879
H           -0.06693468123915        0.24162285792790       -2.30113021862023
H            1.50193780542707       -2.53014528639175       -2.86913768544983
H            0.98414672053520      -11.14920591463463        1.86558485038185
H            1.10173861203754       -9.48308058079136        7.52701561283437
H           -0.80230857568640        0.82305621836196       12.05847580271930
H           -0.44688990687142        1.37913227689746        4.13018141272894
H           -0.95848922629415        2.39236909066027        0.97534926986100
H           -4.12842295309552       -1.71101375854774       -1.75775956123273
H           -5.39599328598475       -2.96905302389159       -0.28217758505014
H           -4.71550328709787       -4.21774289406691        1.56078857349746
H           -2.42728191636815       -4.37467223065810        2.34268861738405
H            1.26267917286512        4.44791312814724        0.45375448580142
