17
 energy: -3.480987939147 gnorm: 0.000403146983 xtb: 6.6.1 (8d0f1dd)
Br          -1.47486779988977        0.47425439630068       -0.82002362296401
C            0.34684178153755        0.32392462326795       -0.36495134420748
C            0.96743293133581        1.08839077911395        0.56255454932900
N            2.29779158345067        0.84133397787534        0.76492557984017
C            2.73637149728660       -0.11924730525036       -0.00161919499950
C            4.10725577430576       -0.58558659480965        0.00183525220045
C            5.05429827891090       -0.02559685866853        0.84454412274415
C            6.34390039978572       -0.49309051397868        0.81494762610633
N            6.77231627868580       -1.46430849648401        0.02487626431022
C            5.86291958378054       -1.99461205067977       -0.77685368489044
C            4.54886294124328       -1.60395658047511       -0.82952057893524
S            1.48215449907742       -0.78380313280558       -1.03991702430659
H            0.45469087271185        1.86111554705364        1.12126681797938
H            4.76341720729043        0.76966453237924        1.50867064163027
H            7.08050566056629       -0.05428097451162        1.47112485651620
H            6.20514910854845       -2.78730154106219       -1.42504285654240
H            3.85759940137275       -2.07432980726527       -1.50644740381075
