58
 energy: -12.805140973786 gnorm: 0.000870811142 xtb: 6.6.1 (8d0f1dd)
C           -2.80986213220198       -0.62660459373658        0.98339633837584
C           -2.26727419551083       -0.03561813643506       -0.15833134087658
C           -1.89502487525410       -0.70680293758320       -1.39869200973780
C           -1.35046075076295        0.01999585233919       -2.45569096368809
C           -0.98452857164889       -0.59375417240772       -3.63049860413277
C           -1.15462499091709       -1.95592019684055       -3.77617011490815
C           -1.69107271516780       -2.69724468005041       -2.74181998207171
C           -2.05768688159600       -2.08283606848697       -1.56538595727735
C           -2.19631132687091        1.38955292709896        0.08417067607048
N           -1.98733596050484        2.38248286489387       -0.79148471235138
C           -2.17724921906667        3.59121347467556       -0.24434758608446
C           -1.89182423267324        4.89710548197344       -0.79942382646227
C           -1.54364019723546        5.17222318023242       -2.18882262676662
C           -1.51365607180241        4.13915860117816       -3.12364426862941
C           -1.19528234795595        4.37721492528715       -4.43993695700073
C           -0.89989939891336        5.66036241774787       -4.85484463971718
C           -0.92612418609042        6.70081542097842       -3.94701380815777
C           -1.24407457052748        6.46250295335505       -2.62852473002348
C           -1.96014333162141        5.81936711949213        0.24554919793489
C           -2.29521724467537        5.13104148153998        1.43365415666294
N           -2.48792710980211        3.84463654536547        1.06266855808991
B           -2.80310329092913        2.82526414309215        2.13257146174560
O           -4.18296601892695        2.83956998877528        2.67404173337582
C           -4.48655934171804        1.72221236475455        3.40696475500165
C           -5.40306358528497        1.79996034472767        4.46459717411576
C           -5.73489788629692        0.68616948747982        5.19001935394721
C           -5.17796819982549       -0.54938611705316        4.88047008414357
C           -4.28722838247671       -0.66849679849287        3.84161192792914
C           -3.91635631642276        0.45016938503638        3.09951323798992
C           -3.06650090700651        0.38451035634713        1.93711628489360
N           -2.60912431009214        1.52921618186889        1.38006553415697
O           -1.89517580937194        3.06783128614053        3.27921713552753
C           -1.91940669579531        4.36437877777195        3.72203593068394
C           -1.67083551218839        4.65324207601256        5.07089038012066
C           -1.66790062837961        5.94592001887005        5.52459818803199
C           -1.89791627179799        7.00125996004347        4.64938904597310
C           -2.12985203088171        6.75919634308388        3.31732789761518
C           -2.15783914102431        5.45424320374193        2.83153955513195
H           -3.07676689844839       -1.66239325803183        1.09509195249879
H           -1.21712748288160        1.07782226619635       -2.33352888431301
H           -0.56661505502998       -0.01222584639227       -4.43577912947370
H           -0.86833750190325       -2.44035195385131       -4.69528095154498
H           -1.82284531425205       -3.76080499402295       -2.85608214198729
H           -2.47286983774091       -2.66632513714508       -0.76308310961190
H           -1.74917692423312        3.14516972088990       -2.79450548532864
H           -1.17591750491562        3.56290581979129       -5.14568670243942
H           -0.65030166686796        5.85006990227936       -5.88592529110933
H           -0.69770025458559        7.70289178715860       -4.27168251396077
H           -1.26473842377162        7.27821085808016       -1.92776754064823
H           -1.71582158378837        6.86494128815265        0.18519152594401
H           -5.83475197374753        2.75800582837480        4.69296256110739
H           -6.43735884354761        0.76697377206115        6.00319561217648
H           -5.45383760183249       -1.41912525659527        5.45366206038316
H           -3.86700357992562       -1.62666781738135        3.58992950588443
H           -1.48702967648561        3.83164540528775        5.73987892408300
H           -1.48202660584165        6.14733799302015        6.56676151890704
H           -1.88605163524087        8.01387917401113        5.01750843346697
H           -2.29122699575510        7.57509698532555        2.63448317632793
