48
 energy: -9.143624410108 gnorm: 0.000484298383 xtb: 6.6.1 (8d0f1dd)
C           -0.20677569896330        1.16901152661215       -0.13632210647970
C           -1.47778275330746        0.69192998840366       -0.04859530443204
C           -2.70999259660140        1.49827960229836       -0.08843020158488
C           -2.72437732574095        2.75422878110006       -0.69399845099597
C           -3.87747761482520        3.50817989160819       -0.72789786460946
C           -5.03835566050140        3.02502730750035       -0.15765189412457
C           -5.04351058890746        1.78344874226249        0.44621592138196
C           -3.89229780307474        1.02648044062317        0.48018493057321
C           -1.41285169083921       -0.74297965828081        0.09442263467131
C           -0.11533412815716       -1.14522770138620        0.10133009592163
C            0.35318933534010       -2.53367666104249        0.25940624661089
C           -0.27691860203256       -3.57716396029121       -0.41863562503031
C            0.15325621237691       -4.87723260898186       -0.26719264523760
C            1.21543294670322       -5.16278528068592        0.56786591253620
C            1.84511062595198       -4.14388925332524        1.25517546404452
C            1.41871901123825       -2.84248543002236        1.10525674691167
C            0.71745195681760        0.05610178976887       -0.07157120729386
C            2.06178389641552        0.07424120066779       -0.20126574854052
C            2.90571613785522        1.30432919101965       -0.38544441844594
C            2.59795229763725        2.05380232801141       -1.70839748117836
C            3.51884694022431        3.27499285914218       -1.88800420902880
C            3.41872568339740        4.22632872391079       -0.67995391838574
C            3.74120334681997        3.48995799827888        0.63438671587771
C            2.81992033180363        2.27111763453383        0.82435601283444
H            0.05113687723286        2.20725207833511       -0.23355495676296
H           -1.82381104142870        3.12897071388506       -1.14916566682001
H           -3.87291784567929        4.47648771085842       -1.20181615580791
H           -5.93936888010212        3.61627260335587       -0.18318817293577
H           -5.94902640790258        1.40628984152530        0.89358336578158
H           -3.89632976156281        0.06346681015044        0.96078587401716
H           -2.25984196284017       -1.39791228551685        0.20084975787702
H           -1.10220489718576       -3.35128249030297       -1.07201705248531
H           -0.34031933562059       -5.67264372974022       -0.80173405284047
H            1.55034483559789       -6.18058821057871        0.68603504777011
H            2.66905391606087       -4.36763560062956        1.91330341944283
H            1.89300067763452       -2.05096036113467        1.65972369353925
H            2.57119559358208       -0.87341739830502       -0.18629666155089
H            3.95985804658236        0.98277205426627       -0.45047494670306
H            1.55428895670063        2.38165041657226       -1.70763834208635
H            2.68182379753199        1.36343976645833       -2.55789986768540
H            3.28504256528794        3.80506626962788       -2.82207987642406
H            4.55615432364553        2.93490511424991       -1.99757637115707
H            2.40200038008481        4.63523950346918       -0.62502744768618
H            4.07711692167223        5.09649036660341       -0.81194947713553
H            3.66636690538070        4.17233746334817        1.49282068170543
H            4.78625306318373        3.15635580829837        0.61713303692906
H            1.78661688753341        2.60955193011641        0.94624222026302
H            3.05771212497965        1.73255417336094        1.75104234475971
