46
 energy: -9.642815958078 gnorm: 0.000938888082 xtb: 6.6.1 (8d0f1dd)
C           -0.36455944659897        1.24793853663062       -0.19268220666945
C           -1.60847270169834        0.70948471963990        0.05979001229321
C           -2.87212035536762        1.45303290010439        0.16304987674846
C           -2.96229420699987        2.78080211518951       -0.25585390437890
C           -4.14609514464418        3.47743513425785       -0.15023994815159
C           -5.26587203524005        2.86559282861267        0.37575805188886
C           -5.19797330338306        1.55239856052166        0.79483867737719
C           -4.01593347750504        0.85272395454309        0.68988854450143
C           -1.44931120669371       -0.69686232230861        0.19759293602703
C           -0.12613768615024       -1.02292799077015        0.03725922207215
C            0.43650813148325       -2.38188405624187        0.12342407718990
C           -0.24665318264974       -3.46864938092252       -0.42300055393958
C            0.27164630939128       -4.74190413081604       -0.33915301191479
C            1.47815762210146       -4.95854822151059        0.29621665088921
C            2.16423098330268       -3.89684144995841        0.85148255232643
C            1.64990774253133       -2.62203154906168        0.76875059646679
C            0.59704122685616        0.20654590106908       -0.21459803002410
C            1.96112346656517        0.28974091681033       -0.50597593652305
C            2.74669637305940        1.43911518619540       -0.62891187132705
C            2.43882610722582        2.76055372937991       -0.30782828455728
C            3.46773616786465        3.65910824788147       -0.56379367577054
C            4.61567471194336        3.07848319090843       -1.08557397621766
C            5.81906402377807        3.76534575514383       -1.44550220367868
C            6.04733790482662        5.11546456095564       -1.33957503345118
C            7.33427827572689        5.51313929582862       -1.77346456960613
C            8.09831094665041        4.48284811834228       -2.21358629269241
S            7.24453994260979        2.98974378003956       -2.09974781526494
S            4.38581886603911        1.36856970565123       -1.23883840957909
H           -0.17747393135076        2.28400934668465       -0.40194400865188
H           -2.09632400969642        3.26251426796573       -0.67436330217155
H           -4.19798065228470        4.50258450097998       -0.47910881351731
H           -6.19098342086415        3.41224861110094        0.45949208854522
H           -6.07123086743190        1.07401517297807        1.20753458140636
H           -3.96726764088964       -0.16726757582075        1.02831201805300
H           -2.23645597602601       -1.40174098218872        0.40087547555367
H           -1.18372253871325       -3.29735327350732       -0.92417580104864
H           -0.26490099593429       -5.57087511155752       -0.77126841626837
H            1.88245143921034       -5.95556364511291        0.36097996742544
H            3.10264250687680       -4.06662684146287        1.35383226649014
H            2.17194923370390       -1.79952954114012        1.22636311490713
H            2.47219556351677       -0.64073833100682       -0.68152969972265
H            1.51407410349785        3.06026307812715        0.15461480857041
H            3.38665963974698        4.71660939861274       -0.36698432500435
H            5.31298403303366        5.80905045991678       -0.96039713835610
H            7.67374815218308        6.53887143033618       -1.75405645681372
H            9.10205930639773        4.56752099898704       -2.58523183342607
