53
 energy: -11.311102780967 gnorm: 0.000744305443 xtb: 6.6.1 (8d0f1dd)
C           -0.95481158018827        0.59117599077399        0.35186823567347
C           -2.04974999667695        0.19238658205986       -0.36681552258429
C           -3.29145230653230        0.95892591573283       -0.54815644734715
C           -3.33047683934858        2.33057792965297       -0.29586821694214
C           -4.49537000224369        3.04710380471655       -0.46231481379723
C           -5.64611454932419        2.41098755535213       -0.88346268216839
C           -5.62758585878872        1.05452888637288       -1.13953359048482
C           -4.46409606240675        0.33519559485658       -0.97485824347502
C           -1.78070962672903       -1.11482749413932       -0.89249265401516
C           -0.54393205754653       -1.52431238646762       -0.48694530784836
C            0.07934973296505       -2.82087064881249       -0.80944126673425
C            0.01263697096465       -3.33710117197590       -2.10387664170615
C            0.59212479012863       -4.54861169486153       -2.40996078789914
C            1.24389011160083       -5.27235154778146       -1.43110081900194
C            1.30954745379191       -4.78343279164667       -0.14135944316823
C            0.73133319410196       -3.57245970808178        0.16897125083546
C            0.04220906995680       -0.43552044471736        0.29258109969745
C            1.30051726974202       -0.43586900641553        0.84449963590905
C            1.96774612012543        0.65880041699492        1.50770466734593
C            3.02076194689977        0.37975000845243        2.40064871200635
C            3.69947152250921        1.38042941026367        3.05550234664310
C            3.34325028523867        2.70283074880424        2.81787169499132
C            2.31709741460821        3.00424778161158        1.91348618670097
C            1.63979416165419        2.00215469064762        1.25960794972762
C            2.16611191807298        4.50154545362187        1.83032673000851
C            3.19854123267036        5.03385036966521        2.79117545937242
C            3.51835109041529        6.33011631652643        3.14108471904406
C            4.52566980875217        6.54451227532187        4.06545872909739
C            5.20515998399018        5.47778869219704        4.63400473852755
C            4.89227481636429        4.17788601197250        4.29121466097589
C            3.88288184570871        3.95526981639994        3.36339547339620
H           -0.89540157498991        1.49514783941310        0.92982324730967
H           -2.43396383836486        2.83351970136506        0.02247170946055
H           -4.50891890889150        4.10655039770330       -0.26376951956783
H           -6.55713289493861        2.97248371070189       -1.01235397262373
H           -6.52611143586343        0.55695586949866       -1.46709461918808
H           -4.45705226905032       -0.72386730327174       -1.16503554578073
H           -2.45484625025520       -1.69889734964018       -1.49419043869512
H           -0.49140871154590       -2.76846052642330       -2.86640365833080
H            0.53761997628040       -4.93190877150854       -3.41591454164495
H            1.69765161470806       -6.21984321417874       -1.67241099428232
H            1.80964642396837       -5.35310170509057        0.62495688525916
H            0.75249667080322       -3.20888274813620        1.18186272384063
H            1.86087257782320       -1.35067838119847        0.77114446824637
H            3.28693307520422       -0.64834137461504        2.57733086587118
H            4.49678769710922        1.15617008913120        3.74210030069854
H            0.90952739712361        2.26102277673466        0.51719173239374
H            1.15727733751428        4.81232569476766        2.12288373427598
H            2.35394759895625        4.85999792402937        0.81241935680114
H            2.98608988976453        7.15229749290713        2.69522368393972
H            4.78425723269071        7.55235418699471        4.34644776496179
H            5.98664759643147        5.66505692380428        5.35225279418905
H            5.41372893507013        3.34382140992044        4.72692817010453
