56
 energy: -12.247471203680 gnorm: 0.000626165744 xtb: 6.6.1 (8d0f1dd)
C            0.57493116145677        1.79018452173505       -0.47377648959025
C           -0.76584692439530        1.50770287561954       -0.39662788857876
C           -1.86379725520190        2.45886818563250       -0.61507580097280
C           -1.61090130629896        3.76221630700286       -1.04557477604360
C           -2.64120600856292        4.65464436595475       -1.24514818388685
C           -3.94674816594685        4.26804524614386       -1.01899398217900
C           -4.21860791499163        2.98387278352475       -0.59240915834442
C           -3.19055883234416        2.08871693390566       -0.39249286117006
C           -0.89784049626747        0.12099629667917       -0.06821472751002
C            0.34264814784349       -0.44010054368554        0.06442348628334
C            0.61716071393639       -1.84383761390379        0.40975864096248
C           -0.21190446839201       -2.86465582375201       -0.05632599130573
C            0.03723417982695       -4.17964458224954        0.26897730979652
C            1.11458943498945       -4.50348905483156        1.06948383709948
C            1.94119477290591       -3.50654467476269        1.54783127449650
C            1.69548834045407       -2.19046082249398        1.22457739811332
C            1.32013831200821        0.60924036028598       -0.18647375442379
C            2.69458565955005        0.45291304733744       -0.27186691342030
C            3.66795986907320        1.50168746744899       -0.44219072527650
C            4.77806971557807        1.25745406217948       -1.27768480519755
C            5.69125947385348        2.23003915057530       -1.57297816765577
C            5.57202916992081        3.52019411149540       -1.03419177127268
C            6.49159037930288        4.55820446505426       -1.35552843673274
C            6.37586814642869        5.79417846835549       -0.81314857324084
C            5.33494737979914        6.09724832694707        0.11429893199637
C            5.20278972475857        7.35861614725269        0.70066497940494
C            4.19681938728488        7.61325559817502        1.60979018305661
C            3.30222207449932        6.62585999987428        1.96464966942560
C            3.38969644117907        5.34774457223108        1.40516474637676
C            2.50314880570562        4.29354073804202        1.76786166617215
C            2.60227215924515        3.06866349890011        1.19722767167527
C            3.57103092898344        2.77908775847017        0.19446934358254
C            4.51302709296201        3.78808295680475       -0.13217496881571
C            4.41019119616426        5.08062332426945        0.46097925479867
H            1.00386021159210        2.73892556239492       -0.74200835860885
H           -0.59681663758603        4.07245553468536       -1.22520175342916
H           -2.42738288424730        5.65699661176291       -1.57915233513179
H           -4.75206098092410        4.96727942347778       -1.17508681619189
H           -5.23769804171416        2.68127213959518       -0.41399572995157
H           -3.41035731798047        1.09136449157495       -0.05488209554549
H           -1.82637400720280       -0.40490306807097        0.06772542724693
H           -1.04740632264947       -2.61247907922795       -0.68629737236308
H           -0.60972904586606       -4.95751280023315       -0.10243943306561
H            1.30811360622776       -5.53297564781524        1.32343167555627
H            2.77768277344695       -3.75851431567305        2.17919377589364
H            2.32318099239322       -1.41223775085128        1.62250184235141
H            3.06153389355897       -0.55846435572697       -0.32934436998177
H            4.87478101779870        0.28327592348237       -1.72575398517791
H            6.51152335118121        2.01839535435262       -2.23717377331113
H            7.28883899171794        4.34336120377963       -2.04600377979748
H            7.07871166502343        6.56771647818050       -1.07002316580128
H            5.90129826191101        8.13353979871351        0.43575422496242
H            4.11265862364640        8.59284101735353        2.05129808784709
H            2.52629756951748        6.83004703698987        2.68206479940947
H            1.75269852268294        4.48453013770897        2.51538608833304
H            1.94501446218186        2.28117784932793        1.52014662913977
