53
 energy: -11.225861930332 gnorm: 0.000815696794 xtb: 6.6.1 (8d0f1dd)
C           -0.02560975984429        1.08219050638397        0.07399318836674
C           -1.32020632953894        0.65285728181250        0.18895521115061
C           -2.51359471899738        1.50827271061048        0.27673876495580
C           -2.42194954855228        2.89108102085402        0.11565050349130
C           -3.54250807113921        3.68923709733715        0.19015438480561
C           -4.78002028896674        3.12706900339462        0.42869730126526
C           -4.89178269100611        1.76163850176056        0.59454357202464
C           -3.77311055441305        0.96074394563506        0.52029321448262
C           -1.30792897432037       -0.78111920451589        0.18783088017978
C           -0.02364860342465       -1.22909840429372        0.07542986884685
C            0.39436429228516       -2.64096366438117        0.05879256733218
C           -0.36216237224060       -3.59734515331931       -0.61830591772736
C            0.02039029287729       -4.92051713341543       -0.62945318906303
C            1.16159926781129       -5.31735465255330        0.03866174629497
C            1.91830079208812       -4.38655532420329        0.72211635103527
C            1.53935907207954       -3.06248737599441        0.73491978609016
C            0.84067315461952       -0.05633102510554       -0.00414359953010
C            2.19791332250416       -0.06891538819372       -0.22207356790927
C            3.08323567626769        1.07264801033176       -0.18075885747870
C            4.30146704122014        1.04643489323528       -0.87269828586902
C            5.15539625537405        2.12713850825906       -0.83629927728922
C            4.83210616123877        3.24618223503473       -0.10180036780848
C            3.64512079206643        3.29713092009631        0.63099348488566
O            3.33861475800876        4.44497402528618        1.37867284320291
C            2.48694856225435        4.32021660659494        2.49083482266864
C            1.55493759954200        5.32429229889668        2.75920538658419
C            0.70547099825089        5.22546563568501        3.83607860530708
C            0.77183154840549        4.12883387327563        4.67405330251043
C            1.69837923755947        3.13265887413932        4.43319916904877
C            2.55011956673243        3.22702407101670        3.35794135797198
C            2.78606970811191        2.20564776724664        0.57438090813765
H            0.27809424062737        2.10781755410369       -0.02606004001262
H           -1.46239031815264        3.33841418540937       -0.07405933896987
H           -3.45382068398081        4.75554724416587        0.05969402107135
H           -5.65614403160348        3.75243231157280        0.48406561652937
H           -5.85751661751913        1.32128666628002        0.78256039468833
H           -3.86801743237188       -0.10201850204163        0.65610862494624
H           -2.17318518847540       -1.41493769296680        0.27046110881676
H           -1.24831135371586       -3.28533141452304       -1.14378859102505
H           -0.57171614120810       -5.64740276229510       -1.16114504659582
H            1.45972764771522       -6.35311367291290        0.02912503686176
H            2.80512145586218       -4.69738830468382        1.24998069766587
H            2.11420312688315       -2.34203242249867        1.29071600769815
H            2.64815272328698       -1.01428246224531       -0.46833638293448
H            4.55641053472236        0.17423720809013       -1.44968617007496
H            6.08122857094635        2.09784723452410       -1.38723274384023
H            5.49057676150483        4.09587287123848       -0.06964974242973
H            1.51213986216415        6.17159818028494        2.09819781192332
H           -0.01331148984729        6.00551339654458        4.02701808830418
H            0.10509067889012        4.05271381917990        5.51734042546393
H            1.75587812100355        2.28076014216275        5.09095085414620
H            3.28720327966567        2.46481491981351        3.17736037392310
H            1.88981006668258        2.23123103996852        1.16227483586571
