42
 energy: -8.865472797907 gnorm: 0.000400745863 xtb: 6.6.1 (8d0f1dd)
C           -0.16752524778731        1.19429348922723       -0.12356398481394
C           -1.44843655246503        0.72669336092787       -0.01835511362468
C           -2.67448483971196        1.53983435123531       -0.03613854706459
C           -2.68761872228679        2.80738715587278       -0.61794144076894
C           -3.83714519137525        3.56691468984996       -0.62975814320225
C           -4.99591041107732        3.07925614132662       -0.05922296114438
C           -5.00230853456757        1.82724674692692        0.52245583869180
C           -3.85530760723218        1.06401189101076        0.53349995432463
C           -1.39124293111704       -0.70257422230621        0.10038109997813
C           -0.09083236022200       -1.11174282048588        0.07339862882875
C            0.37086271281842       -2.50636116129880        0.17793708666441
C           -0.32542894352271       -3.53310528904007       -0.46037446638342
C            0.09758461347855       -4.84023801183601       -0.36159887065107
C            1.21998630958029       -5.15101081739738        0.38023245063135
C            1.91687736076598       -4.14971178523099        1.02699266637669
C            1.49740525742949       -2.84134375179006        0.92987116280680
C            0.73974668686905        0.08407224651640       -0.07027810823824
C            2.10294327411765        0.09813757011980       -0.22489602145736
C            2.96446263723701        1.26085963229862       -0.26769501585762
C            4.20929529246222        1.17601271779378       -0.90334908017265
C            5.05957689630417        2.25736532409126       -0.94368999392286
C            4.69862383406108        3.44720049661304       -0.34196122768481
C            3.48536988974081        3.54781591419016        0.31069027237513
C            2.63031914470149        2.47008952331667        0.35378075036694
H            0.10109576335612        2.22248498518356       -0.28251715671088
H           -1.78933069851891        3.18656481560458       -1.07331177986169
H           -3.83233073358816        4.54324367514662       -1.08661948856404
H           -5.89390529905894        3.67542072917898       -0.06753460716197
H           -5.90568379043994        1.44709169827347        0.97126085434822
H           -3.85981691086219        0.09327667779602        0.99804314862073
H           -2.24185516080316       -1.35510626509278        0.19226256014292
H           -1.19661783247000       -3.28897324862316       -1.04367917398445
H           -0.44828586651031       -5.62201889658193       -0.86425360130629
H            1.54936348514594       -6.17444820170917        0.45728286472709
H            2.78860781757062       -4.39290473579726        1.61252880422155
H            2.02485002846151       -2.06555781897899        1.45741834190423
H            2.58814122520501       -0.85320378802499       -0.35488627783631
H            4.49284354124589        0.24926630777140       -1.37239817056412
H            6.01084753576123        2.17556743105714       -1.44404429438987
H            5.36687538632174        4.29236556737017       -0.37291343710570
H            3.21232485431444        4.47055531024429        0.79653390192271
H            1.71852408667124        2.53805236525244        0.91942057553829
