67
 energy: -13.099525258686 gnorm: 0.000867917726 xtb: 6.6.1 (8d0f1dd)
C            1.76461381612790       -2.09449214178495        0.60480847532785
C            3.10754694754177       -1.75062803985435        0.68641382964441
C            4.32027051786458       -2.52070123811981        0.75714377318336
C            5.38635530218916       -1.67799530253948        0.53849498115302
C            4.88301252016346       -0.34307484495410        0.32851719304264
N            3.55035113263550       -0.45380195290524        0.50150968038360
B            2.68133007461214        0.77403460762196        0.27169921004407
O            3.14983031131626        1.42365170150796       -0.97888376378353
C            4.49305124100620        1.68081696142238       -0.98198935939990
C            4.99588214550500        2.77714423883506       -1.69945292623530
C            6.33848589908858        3.04314917511923       -1.72730066596868
C            7.23476574562277        2.22312572102383       -1.04894567171427
C            6.78324411427674        1.13166142499029       -0.34888370654427
C            5.42093808324399        0.83741668956921       -0.29526755967685
O            2.75541474132028        1.80490706240259        1.33764819961024
C            1.80698966689118        2.78186685490564        1.21031621981767
C            2.07632584468615        4.08418578143214        1.65843028464672
C            1.13715543765716        5.07393543797110        1.54742304513113
C           -0.11205404004402        4.80323333733557        0.99758651297994
C           -0.42003903648716        3.53677734221659        0.56558722633962
C            0.51852647596493        2.50890308102000        0.65502603441635
C            0.23826551687067        1.13842375301604        0.31328893524176
C           -0.95048535505235        0.32364149342688        0.37102260641688
C           -0.57631052740149       -1.00050442516763        0.39555920028594
C            0.85980429663961       -1.06959560044970        0.35910667694203
N            1.25183348638863        0.25157584827357        0.23582630918446
C           -1.70013407752885       -1.98412494357722        0.62853922419093
C           -2.37012688195766       -1.59923409769764        1.98737893493747
C           -2.79605241272736       -0.08691691045621        1.96792392382921
C           -2.43115065447824        0.55673790138822        0.59049401322076
C           -3.19543625515142       -0.23967432935431       -0.51702891022003
C           -2.75773709025755       -1.74845389340646       -0.49786985169680
C            6.72076919840714       -2.38260472690195        0.40620703155130
C            6.94282734350138       -3.20453639816670        1.71781388025166
C            5.71989128346916       -4.15735709410328        1.97277788022960
C            4.66515778698021       -3.99049997038104        0.83156435166701
C            5.36833764819513       -4.36416370268752       -0.51371487724467
C            6.58454318729818       -3.40299564352996       -0.77043499209833
H            1.43895091940785       -3.10965226916808        0.73190187134536
H            4.29648119502974        3.40619060842735       -2.22051351430277
H            6.70519095253011        3.89292097908397       -2.27944382626910
H            8.28910426014423        2.44392097278817       -1.07822901734614
H            7.47778797250204        0.50151959401496        0.17718202623153
H            3.04437239509684        4.28461634023746        2.08163694842306
H            1.36596524039093        6.07052756571055        1.88790432617973
H           -0.84275451617807        5.59110352934913        0.91653800289542
H           -1.38560259773703        3.33081962023340        0.13947958129599
H           -1.31624506184827       -3.01591886255134        0.63090600006323
H           -1.67250573873943       -1.79214056839958        2.81028209744486
H           -3.23824774314085       -2.24298173012203        2.16835313570084
H           -2.29450914176115        0.46282548007502        2.77250112921631
H           -3.87099949193122        0.01558871383576        2.15428520511672
H           -2.66880103122467        1.63007582803200        0.56341753585039
H           -2.99264704352136        0.20686980878829       -1.49704568048168
H           -4.27617353160561       -0.14903221620453       -0.36030551936737
H           -2.33385841963974       -2.03804991787340       -1.46610397654391
H           -3.62331487241159       -2.40118494085286       -0.33806877985468
H            7.53171626537519       -1.66078376319142        0.23144603511132
H            7.07829547232273       -2.51915803637747        2.56215019996845
H            7.87203883079900       -3.78039455082981        1.64231262508297
H            5.25363667770815       -3.93442097894555        2.93918795132014
H            6.04703987873005       -5.20177462773030        2.02741386566844
H            3.75975975708449       -4.59117364010818        1.00891804979437
H            4.64737139001951       -4.30077882783424       -1.33665329341390
H            5.70098680678246       -5.40773995906209       -0.48090493308909
H            6.45076863691782       -2.85878041968131       -1.71227849825745
H            7.51379910452524       -3.97356688909595       -0.87859489685794
