63
 energy: -14.149702232809 gnorm: 0.000291068813 xtb: 6.6.1 (8d0f1dd)
C            0.84984047130242       -1.79188897233696        1.49073464437954
C            1.95764490019546       -0.95936149663874        1.51352968583217
C            2.18540750421498        0.38672517556319        1.01826755732315
C            1.43468734576036        1.19674588770378        0.20190932236357
C            1.88779625860397        2.50269520129816       -0.07985827557644
C            1.15864906609821        3.36982205079831       -0.92389012056056
C            1.60602598489769        4.63031648587213       -1.18362968354487
C            2.79960257695723        5.09226995607559       -0.61556817467936
C            3.53197405465000        4.28803953218585        0.20465151315401
C            3.10594151369688        2.97274406934480        0.49856583362544
C            3.85670653449635        2.13115928634055        1.34542620300929
C            3.41674504679755        0.85056638504716        1.59551979845300
C            3.93771715921463       -0.22284400480092        2.43342761808119
N            3.07664793118241       -1.24108184449109        2.27014589265290
B            3.31649899352603       -2.51921723894787        3.05967834091658
O            3.62150094169631       -2.13079263255873        4.45709936993364
C            4.65097774581917       -1.22925593657722        4.54072506869764
C            5.48480413344827       -1.22582110313826        5.66536136058043
C            6.51548593500218       -0.32928175960060        5.77453177861199
C            6.74685475946363        0.60145350608286        4.76957333871940
C            5.93927128975314        0.63891982256106        3.65981653142350
C            4.88421992157302       -0.26335648886504        3.51635565121444
O            4.45836202983492       -3.33609784565080        2.58445232506745
C            4.52362256230506       -4.55668315224754        3.20569976343908
C            5.76518318039408       -5.17054967128467        3.40992679534710
C            5.85360037572865       -6.39310069381488        4.02274595442565
C            4.70624326032417       -7.05147887395415        4.44690542881880
C            3.47007388340057       -6.48810392383919        4.24819309726239
C            3.34646047936696       -5.24232414593846        3.63140098720248
C            2.08492765048428       -4.63340462947029        3.30323445075625
C            0.76781990542706       -5.16508061236958        2.97438225732983
C            0.19660485464364       -6.40589937274490        3.14766294715628
C           -1.11640827418850       -6.63846635197147        2.68830246620471
C           -1.74376572973624       -7.89320799933937        2.86147464435188
C           -3.01356651582353       -8.10624615118181        2.41631706533799
C           -3.72323954282422       -7.08350480472489        1.77516891154227
C           -3.15393180380470       -5.86022839905678        1.58550314276817
C           -1.83979069370266       -5.59653909105073        2.03212666703662
C           -1.23557276161552       -4.33656402039757        1.83812017426812
C            0.03927439420560       -4.12448686802453        2.30274994945304
C            0.91729293135299       -2.97083855796244        2.21605494046074
N            2.05555914968996       -3.35403948734645        2.89501331541867
H           -0.02935406865999       -1.53260886532857        0.93184645314866
H            0.51175069059179        0.83915217403450       -0.21524555125810
H            0.24046200230146        3.01810260892064       -1.36178818283282
H            1.03921830233519        5.27954948557627       -1.83067909684993
H            3.13870026490474        6.09225760551088       -0.83108142022633
H            4.44909844302376        4.64647019583339        0.63934887482174
H            4.76152113281022        2.49601106153836        1.79128625203377
H            5.29839518866117       -1.95105206079741        6.43716794543417
H            7.15055298622346       -0.34558298917071        6.64502630803073
H            7.56102208881610        1.30087143251246        4.86537418941867
H            6.12727246193475        1.35682380063173        2.88258490765170
H            6.64769828556198       -4.65240671588276        3.07966258138416
H            6.81869414011403       -6.84703364511128        4.17709332221181
H            4.78801146566780       -8.01148842832987        4.92946114986142
H            2.58642865119720       -6.99852391653660        4.58509331470604
H            0.74109214071108       -7.19715173802890        3.62524063928537
H           -1.20129046185414       -8.68164322762532        3.35407166452773
H           -3.47861102355219       -9.06812295775643        2.55761033620569
H           -4.72737241047998       -7.26860919470042        1.43030676053526
H           -3.70189697625248       -5.07642879020860        1.09161134773519
H           -1.76539270789613       -3.55106706364071        1.33215966590519
