52
 energy: -11.278689478323 gnorm: 0.000626655355 xtb: 6.6.1 (8d0f1dd)
C            1.46419716846299        1.17378117692995       -1.65306930099104
C            0.20425509882120        0.54546269685859       -1.94160068353192
C           -0.29639428304758       -0.39949287076750       -1.14346068250235
C           -2.19624494366521       -2.03879466064287        2.17753160065790
C           -2.29866621521761       -2.75860068376701        1.05743891721670
C           -1.09272118293525       -2.88368552882652        0.22614456350620
C           -1.14104039910200       -3.62216892783413       -0.94404308298976
C           -2.31395375839441       -4.24439173604119       -1.37784606294908
C           -2.32769439535115       -4.97009228866879       -2.57838752476024
C           -3.47521360941979       -5.59210534390545       -3.02449253465968
C           -4.63346499085277       -5.51232449103756       -2.29449430662902
C           -4.68056493505576       -4.79705182227348       -1.07745227468922
C           -5.85932766725642       -4.72682190003314       -0.34509167718955
C           -5.92419571218422       -4.03211779588713        0.86124581001101
C           -7.14370184248267       -3.98769093521337        1.58238174385065
C           -7.23481807379939       -3.32268617575421        2.76422180809245
C           -6.11317406744224       -2.67298424835444        3.27927997123926
C           -4.92628272149338       -2.69776050810516        2.60490994797370
C           -4.76744699609289       -3.36844837736758        1.37227393505417
C           -3.52897747791033       -3.41606405414521        0.62729281635892
C           -3.50782097855972       -4.14005652889687       -0.59041637185525
C            0.14792191535429       -2.23759361842162        0.55700809614575
C            1.10486016836685       -2.87258453048886        1.39486740992832
C            0.83211212940066       -4.11422534693582        2.00708695191858
C            1.74559821211739       -4.70935781722055        2.83155722981985
C            2.97394536408255       -4.10102865669669        3.07401287796140
C            3.28189518430930       -2.90236065090952        2.47956263424118
C            2.37065146973917       -2.26330304108777        1.63423967991409
C            2.72534985584514       -1.06052093972916        0.94109985411409
C            1.84488883711966       -0.39203591788242        0.15618495311470
C            2.25488765416596        0.71289695227381       -0.66491283071537
C            0.37638535434864       -0.78590418626178        0.14878087395283
H            1.79736940460380        1.98863555620874       -2.27432206146824
H           -0.32561353278302        0.83109004561704       -2.83549294540706
H           -1.22443749648924       -0.88273063396614       -1.39532535993651
H           -1.58237130576982       -1.47350407797813        2.78753467033844
H           -0.24968532368755       -3.70836500876363       -1.53921395075082
H           -1.42185105965364       -5.03679885708964       -3.15608020563479
H           -3.46064457875647       -6.14313025996509       -3.95070201394623
H           -5.52653594345961       -5.99996870336373       -2.64557232851688
H           -6.73908747785869       -5.22149696190818       -0.71547100902617
H           -8.00457976110707       -4.49256169619010        1.17849699942600
H           -8.16746793726270       -3.29616495356927        3.30379867512387
H           -6.18895336696178       -2.14800719396493        4.21771011802698
H           -4.09347835646930       -2.18609602821357        3.04113239301263
H           -0.11921724223778       -4.58333676544247        1.82652050678975
H            1.51497698375132       -5.65287426759622        3.29857894854301
H            3.68842031558000       -4.57867210399363        3.72426718870295
H            4.24024789801976       -2.44383364931386        2.65401686300910
H            3.74449595871323       -0.72165748420351        0.99304973582495
H            3.23006349412069        1.14028240000908       -0.50530695781226
H           -0.09615483415820       -0.17547659924931        0.93625639214938
