34
 energy: -7.141743113835 gnorm: 0.000607103767 xtb: 6.6.1 (8d0f1dd)
C           -2.78558055243212       -1.43732917416561        0.18627242420016
C           -1.42658638630327       -1.49263668781603        0.12108810373007
N           -0.64102488606678       -0.38278077024614        0.02806403806789
B           -1.33738140902975        0.90605303513315        0.04058943296085
C           -0.50438433759609        2.17373948791127        0.16798904764714
C            0.82440129114189        2.07177243011597        0.15624125109161
C            1.49455297209214        0.81194382993459        0.03121852746350
C            2.89661339976949        0.77174755758194       -0.01597789766551
C            3.56477601062891       -0.41600572982037       -0.14116106596426
C            2.85241581198146       -1.60349904792834       -0.22638462678324
C            1.48271429518153       -1.59123611283077       -0.17880531659367
C            0.77002169466185       -0.39457508388730       -0.04225706102508
C           -2.85493964112198        0.97083507886661        0.05121076539623
C           -3.57021158836117        2.24813219956810       -0.00655449049580
C           -3.26108464502334        3.19537638838663       -0.98231577163606
C           -3.93165081677645        4.39735139093853       -1.03518551131913
C           -4.92570362328652        4.67653493372269       -0.11859035854825
C           -5.25079199836718        3.74780322689319        0.85003679053183
C           -4.58230601929769        2.54462456533083        0.90623498061952
C           -3.48423935717167       -0.23552219545951        0.14748750719604
H           -3.34338034649509       -2.35680597424570        0.26464556095488
H           -0.94610874226328       -2.45201450042005        0.16516546706626
H           -1.01531078623442        3.11015002692157        0.27579392811949
H            1.42706224906614        2.96038574881055        0.23925910264941
H            3.44667974316681        1.69516106049955        0.04670850072788
H            4.64191519538236       -0.43027728789265       -0.17693493800744
H            3.38013702243882       -2.53755714288643       -0.33148397416515
H            0.95097471023511       -2.52116352342867       -0.26110149779110
H           -2.49528656931616        2.96838502920123       -1.70421855019260
H           -3.68072683833945        5.12018088067141       -1.79430528842977
H           -5.44930695103353        5.61773828150209       -0.16032631764238
H           -6.02780666685965        3.96506302000153        1.56495066916568
H           -4.82770454854381        1.82287627151494        1.66627464538304
H           -4.56075768583028       -0.25029121247837        0.17844192328808
