52
 energy: -10.610167490069 gnorm: 0.001723843256 xtb: 6.6.1 (8d0f1dd)
C           -0.05445995045901       -1.93517314848094       -2.30569161542500
C            0.06738418120367       -0.65657265066506       -2.74367461257692
N            1.30091789983481       -0.04745074177969       -2.80074447880236
C            1.38987561164192        1.31744062557489       -3.30910458024074
N            2.74636341417098        1.85471972032893       -3.29862159612951
C            2.96150042101282        3.12571187597031       -3.78258449985733
C            4.20445128169101        3.67066094215837       -3.77037989335890
C            5.27519753110004        2.94399352172913       -3.25034061087403
C            5.09090197870130        1.67176611246462       -2.74979992581084
O            6.15680250147719        0.93532710876317       -2.18172160110956
C            7.14896423288506        0.51830877117079       -3.12957517523864
C            7.32654459539775       -0.96795434589170       -3.15067268678007
C            8.57488873802345       -1.54596767918853       -3.31468135763362
C            8.71453586437371       -2.91907739789671       -3.31928008379491
C            7.60866223532316       -3.72881195154901       -3.16222366072206
C            6.36214030504604       -3.16227136690334       -3.00229401284764
C            6.22704628759613       -1.79185437946988       -3.00451717544021
C            3.78714285478286        1.09212155210183       -2.79376620680872
N            3.66169902909838       -0.16571285502046       -2.38086937786317
C            2.45037314217286       -0.71412395422541       -2.40913237105275
C            2.33141459506695       -2.06769865465752       -1.97233247599056
O            3.49596465271920       -2.78641215120734       -1.61212520207928
C            3.58967993003818       -3.08711687793476       -0.21255407889919
C            4.82124878100514       -2.51025294006096        0.41361074061301
C            5.50971151050631       -3.18123910482177        1.41133406105826
C            6.65176757416318       -2.63541353264333        1.96189947921520
C            7.11776705349627       -1.41306202869173        1.52267555420924
C            6.43478948994108       -0.73469188933635        0.53626837657261
C            5.29128263544961       -1.27985655124931       -0.00380887489259
C            1.08078118864077       -2.64783282224211       -1.92021014646742
H           -1.02268001179513       -2.40560575192947       -2.26422795826528
H           -0.79428416498862       -0.09397564690124       -3.05625140504431
H            0.74884145322560        1.96232201131262       -2.70346822865710
H            1.01002350878750        1.33786756528223       -4.33327785589176
H            2.11993653200140        3.67469932891848       -4.16623559550013
H            4.36308872187107        4.66560566949575       -4.15177016216607
H            6.26007291346870        3.37398893604046       -3.21392731111974
H            8.08518897391843        1.01697280872672       -2.86031502271082
H            6.85918245265281        0.87578332921356       -4.12294009120946
H            9.43698725908687       -0.91199219870020       -3.43225233423745
H            9.69049533108332       -3.35957613393272       -3.44181321802604
H            7.71829956443536       -4.80109626377733       -3.16043627908148
H            5.49372850068667       -3.78309546549740       -2.85421525020335
H            5.26097375460794       -1.34267209749924       -2.85193010215904
H            3.58291073937118       -4.17720952222906       -0.11425595202515
H            2.69570199999768       -2.70601914547647        0.29153285530707
H            5.14860495742461       -4.13751849161334        1.74929813537583
H            7.18401314733095       -3.16718553895539        2.73364614384480
H            8.01362322922596       -0.99063931092164        1.94757783727007
H            6.79835646457687        0.21141356569558        0.17007553995529
H            4.76498989374482       -0.76512436967774       -0.78884487484385
H            0.99919521320135       -3.66884648396021       -1.59290078171737
