89
 energy: -19.309941393027 gnorm: 0.000445130413 xtb: 6.6.1 (8d0f1dd)
C            2.71857767584336       -1.59558432628181        0.29237098784391
C            3.02278945614013       -0.40178837573380        0.83461361389871
C            2.55125603966986        0.91111818606933        0.44205601657766
C            3.38827711080199        1.99827480298683        0.73955079967660
C            3.03635149172949        3.29062561436957        0.44965699402681
C            1.81520105298829        3.55682062496798       -0.15493125267327
N            1.38114560346541        4.88217073953330       -0.45615432620681
C           -0.02343983429109        5.14551346927788       -0.62638707035708
C           -0.47835859603908        5.86964822117243       -1.72509120946906
C           -1.82623353452740        6.06480598072045       -1.92707711672072
C           -2.74370546470241        5.54397595657503       -1.03512197631079
C           -2.30757516751731        4.83265533109050        0.06564675591081
C           -0.96050181863627        4.63854784531062        0.27155793094606
C            2.32529911915297        5.93610547319958       -0.69893905357398
C            2.06404044916627        7.22961132362089       -0.25496528426174
C            2.95933544209396        8.24804156694231       -0.49327811633562
C            4.12873138687445        7.99461082710583       -1.18373254564101
C            4.39782004253632        6.71814216074710       -1.63840706240580
C            3.50429009319564        5.69794376100602       -1.40066317265321
C            0.98555632597808        2.48099265413228       -0.44266139583716
C            1.30479235867109        1.16615895623615       -0.16408471116056
C            0.21914044914432        0.10354699025108       -0.38377343838847
C            0.69654232993119       -1.12670296574020       -1.16402083973859
C           -0.09351369750945       -1.58404790893954       -2.20163915617014
C            0.19480234570199       -2.72491280476034       -2.94121324897344
N           -0.66323254118244       -3.11248551637309       -4.01481089950025
C           -0.81563438918197       -4.49210813353354       -4.37973171285071
C           -0.95803410258730       -4.85707159105821       -5.71578695048489
C           -1.11278163147636       -6.17837783016836       -6.07036377187527
C           -1.13206492839977       -7.15850886640084       -5.09706406593544
C           -0.99788659687631       -6.81151637301229       -3.76659234741985
C           -0.84205795581443       -5.49081435232066       -3.40979972391086
C           -1.41020923615735       -2.10741778282653       -4.72148750077493
C           -2.75632272180265       -2.30085687623469       -5.01900561662029
C           -3.47796827806093       -1.32407787070576       -5.66776030806212
C           -2.86774637607308       -0.14033332243156       -6.03538070649768
C           -1.53050564068283        0.06221619634213       -5.75460678879676
C           -0.80745677720178       -0.91153359405159       -5.10352651458965
C            1.32649836235165       -3.45387369934980       -2.60175736486644
C            2.11618695093437       -3.04461051337170       -1.56001615125919
C            1.83458147101691       -1.88521343976976       -0.82082774517867
C           -0.43269495118605       -0.29599146210493        0.95345714821236
C            0.09316154449749       -0.93529563808743        2.05859177112814
C           -0.70826579794056       -1.16680940243514        3.16075740558536
C           -2.03279555844439       -0.76409378509616        3.16818135172672
C           -2.57466388599467       -0.12536605543222        2.07245186774719
C           -1.77062389557400        0.10689771841473        0.96559161858112
C           -2.10141524205562        0.75430769258202       -0.30595070832925
C           -3.29093195442861        1.32072586210602       -0.74131607665599
C           -3.33938629937215        1.88551714027614       -1.99933196612959
C           -2.21999884519252        1.88576877833832       -2.81430155608774
C           -1.03477234946619        1.32014775945511       -2.38356075440376
C           -0.97445281150101        0.75347757459030       -1.12462854705211
H            3.24030240446227       -2.45456300168789        0.68605191770290
H            3.76275441266397       -0.39821020597425        1.62016266566220
H            4.33608617236699        1.80301126870149        1.21199393317771
H            3.68733708062376        4.10823199314749        0.70493058401899
H            0.24186666541014        6.25746952412167       -2.42418065739870
H           -2.16648844349715        6.62029782037739       -2.78577420588631
H           -3.79879991390885        5.69226470927681       -1.19766645720864
H           -3.02285077403959        4.42381273178205        0.76056606851680
H           -0.61432222672134        4.08250400684212        1.12552499991200
H            1.15205411228956        7.41772655372008        0.28435747510061
H            2.74773653931372        9.24416446589783       -0.14014238787706
H            4.82935693366824        8.79226879211904       -1.36965148751394
H            5.30733444988113        6.52113934546962       -2.18221806783971
H            3.69998027249190        4.70552890353475       -1.76772683028180
H            0.03785872792782        2.71161691405550       -0.88795250200627
H           -0.99562091018502       -1.06001650523618       -2.45293872518915
H           -0.93732715168440       -4.08822249954155       -6.46835191550888
H           -1.21822819810778       -6.44821423429894       -7.10854087470492
H           -1.25348310257876       -8.19266638082801       -5.37541538543266
H           -1.01725351185319       -7.57541577142680       -3.00644734852416
H           -0.75176905843905       -5.21260270452511       -2.37425727951905
H           -3.22629116802511       -3.22172126159726       -4.72062405604751
H           -4.52128183328997       -1.48219822851573       -5.88728054252686
H           -3.43434335587074        0.62435129434566       -6.54122044421455
H           -1.05315966044705        0.98461883355553       -6.04277440510571
H            0.23502765657517       -0.76241738050919       -4.88203505543394
H            1.57515552763903       -4.33383564927196       -3.16872293491056
H            2.98630240606120       -3.62273219310384       -1.29843189235386
H            1.11957658575580       -1.24828347817613        2.05835674461950
H           -0.29663768209527       -1.66464128167807        4.02354055301020
H           -2.64498541200967       -0.95099542612998        4.03535773794178
H           -3.60262857745779        0.19189847691123        2.06507916583972
H           -4.15369980799291        1.31822203254152       -0.09872561055807
H           -4.25559486374727        2.33236169156671       -2.34925943898153
H           -2.27221915361626        2.33286301878752       -3.79340244226867
H           -0.15865136356571        1.32366710453403       -3.00882640590991
