71
 energy: -15.122973472914 gnorm: 0.000212746095 xtb: 6.6.1 (8d0f1dd)
C            0.69933140787769       -1.93895604405648        0.63609259576235
C           -0.64451725306637       -1.96877709645365        0.49431345727518
C           -1.51178574634373       -0.86249193092266        0.10244304308553
C           -2.63020499912282       -1.11370903132138       -0.70220299325075
C           -3.45952997207990       -0.09891212629776       -1.10900839389032
C           -3.22336304954051        1.21640088379264       -0.71471642073571
N           -4.06778268938899        2.28615370266647       -1.14308779377126
C           -3.56134361574307        3.63071536382616       -1.19238143166161
C           -4.34276177088264        4.69556490908938       -0.75108423997607
C           -3.85245033565180        5.98196862806158       -0.76970486962611
C           -2.57405379699991        6.22932787035410       -1.23121014128114
C           -1.78935424215776        5.18493309392684       -1.68048973552482
C           -2.27878740289316        3.89812636910730       -1.66591133824039
C           -5.43926321568854        2.04559128654817       -1.49669318057897
C           -6.01441815300538        2.70783554087058       -2.57829355304427
C           -7.33081431192762        2.48907675300898       -2.91698849827507
C           -8.09776966878226        1.60732229894675       -2.18041850624503
C           -7.54342507439448        0.94728740559063       -1.10082454358739
C           -6.22736785653283        1.16515409623820       -0.75964853272081
C           -2.12810215168335        1.46673011149600        0.10873381975073
C           -1.27896263032870        0.46075149158930        0.51766292051266
C           -0.11080745601617        0.77726020170919        1.39048902188154
C            1.18643166160762        0.52210592317103        0.69519727984466
C            2.00734474531786        1.57242472427336        0.34059456491078
C            3.24694940053919        1.36453185452851       -0.26170088315295
N            4.05891951851835        2.46698084974623       -0.66770643063366
C            5.01956831149034        2.31756090103426       -1.72685325288195
C            6.27099243872824        2.92075896008755       -1.63128132328231
C            7.19359727678818        2.78873106445984       -2.64468207764795
C            6.88186496063035        2.05632875806704       -3.77377304927866
C            5.64108124816555        1.45967523007076       -3.88742820444336
C            4.71661303173773        1.59051742266275       -2.87554551937622
C            3.86641151488899        3.77075062889699       -0.09338032878564
C            3.83496542691328        4.89945563322517       -0.90853404963948
C            3.63441222176808        6.15012026381349       -0.36939582881029
C            3.46607587382771        6.29691341823312        0.99379992302734
C            3.50350121522822        5.18769098826994        1.81660128256637
C            3.70424580048432        3.93567673801303        1.27984932872526
C            3.65879239852743        0.05086671181686       -0.47779595464221
C            2.84144621915229       -1.00367997291909       -0.15933658091986
C            1.57418023951268       -0.79696751784056        0.39907524675644
H            1.20004996078077       -2.86980047082022        0.85031416915588
H           -1.13575866694586       -2.92273381800232        0.60478376677024
H           -2.82164145540964       -2.12379335159688       -1.02186212596968
H           -4.29416504018253       -0.30679838671570       -1.75515470367634
H           -5.33350533154953        4.49375132268994       -0.38281478068030
H           -4.46576928871414        6.79644729892861       -0.42007882296010
H           -2.18951788792293        7.23618306290275       -1.24090456353079
H           -0.79205319267089        5.37717512469888       -2.04138183651638
H           -1.67600842001541        3.08163424291335       -2.02385906595914
H           -5.40921024511376        3.39000057537765       -3.14955016781160
H           -7.76306742677537        3.00626957520710       -3.75806565992414
H           -9.12807329467454        1.43602454010245       -2.44661396999803
H           -8.14266717950474        0.26234332756054       -0.52333520512376
H           -5.79446428983439        0.66654174977753        0.09000735461927
H           -1.94768968305112        2.47302162294385        0.43969963747854
H           -0.16167471434256        0.17135493255722        2.30186173904767
H           -0.15939182155452        1.81956665477960        1.72385250130124
H            1.67707533486220        2.57937132763865        0.51764869499062
H            6.50655112013708        3.48711634323624       -0.74713727214796
H            8.16051286170572        3.25675566134184       -2.55659191712152
H            7.60524212035547        1.95229846651201       -4.56601606986773
H            5.39562967567222        0.89220747801477       -4.77030663348121
H            3.74264567598744        1.14171602997257       -2.96478276731323
H            3.95983332454889        4.77531658996862       -1.97010828703736
H            3.60699091286561        7.01498953327496       -1.01206508100806
H            3.30732740282910        7.27624375836472        1.41501391593583
H            3.37607840032094        5.30266546441207        2.88065751425266
H            3.74580170938757        3.06858174723239        1.91583952083040
H            4.62882558886687       -0.12659187110202       -0.90791606363298
H            3.16075433046529       -2.01149488953785       -0.36306864879401
