44
 energy: -9.330356417226 gnorm: 0.000423088432 xtb: 6.6.1 (8d0f1dd)
C            3.52141194639059       -0.21854762091236       -0.20819327293522
C            2.75250628762138        0.88219491196991       -0.26008276680471
C            1.34014519761438        0.84173007294992       -0.15541613325765
C            0.61816344200299        2.06501903852959       -0.23658693289293
C           -0.72748586324439        2.09809237363043       -0.14055170262087
C           -1.47093565050457        0.90523470649843        0.06949203513763
C           -2.87067789183784        0.95278098039539        0.20449817082069
C           -3.59031357439561       -0.18170814701138        0.44575756752506
C           -2.93579060253276       -1.40275937601047        0.56781345103931
C           -1.57750868560209       -1.47392827006676        0.43404137450421
C           -0.79541436215814       -0.33539576768523        0.16484121070335
C            0.64539814120302       -0.37253554159534        0.01415305461192
N            1.37668217621980       -1.54918401192346        0.01389185723711
C            0.87366687507074       -2.88768093299147       -0.07840971660981
C            0.87104368293595       -3.72193605915096        1.03335314836422
C            0.41994266299318       -5.01901679028411        0.92902792262305
C           -0.02898223668506       -5.49984568001596       -0.28536297239775
C           -0.02567276607667       -4.68092901625255       -1.39748489771423
C            0.42380265431854       -3.38297713868956       -1.29642504120078
B            2.83066876481042       -1.53333234976749       -0.05997991791139
C            3.67323559618887       -2.85659507431516       -0.03446647332639
C            4.22311869490084       -3.28844305088479        1.15570771471954
C            4.91287420786306       -4.48105238446450        1.20110062716499
C            5.05166497638747       -5.24167442529287        0.05567188083606
C            4.50197319647047       -4.80699221279984       -1.13536604117522
C            3.81403489405615       -3.61341334562310       -1.18008752068860
H            4.59120473075920       -0.19998111245198       -0.28413128663647
H            3.22165378319234        1.84408994107666       -0.38229948321020
H            1.16897272702608        2.97845387740907       -0.38347328095319
H           -1.25545956655331        3.03382510508780       -0.20775525086093
H           -3.36996572429401        1.90303281139013        0.12182602716708
H           -4.66195989743317       -0.13282376644414        0.55044782445894
H           -3.50440248901720       -2.29547765342575        0.77229245524250
H           -1.10132095828068       -2.42519018404597        0.55716350596902
H            1.23038597464924       -3.33717821090346        1.97186553715795
H            0.42189647745054       -5.66033361805836        1.79521163358734
H           -0.37887624578208       -6.51605433694499       -0.36625703004194
H           -0.37212142033369       -5.05783235261317       -2.34589464668027
H            0.43658020458897       -2.73535195568172       -2.15573119518117
H            4.09619171635271       -2.68876284504519        2.04055243690945
H            5.33978129899919       -4.82155362183631        2.13031029487813
H            5.58754904007154       -6.17610093840430        0.09168270003712
H            4.60521046306663       -5.40289376587635       -2.02745267192814
H            3.36667812152686       -3.26753226146762       -2.09592419567206
