34
 energy: -7.134132750938 gnorm: 0.000192250253 xtb: 6.6.1 (8d0f1dd)
C            3.60532776725739       -0.13741048985325        0.12437065323261
C            2.81667773284892        0.95487147867855        0.14034201807989
C            1.40267575020310        0.88366958121809        0.09574163981756
C            0.62747583343040        2.07765718476987        0.11430065783819
C           -0.72277549026698        2.04171051097736        0.06529164578191
C           -1.42235264085671        0.80304647584832       -0.01054996013238
C           -2.82643702118987        0.76278066247997       -0.07258527688826
C           -3.48809469569830       -0.43004354351988       -0.15265937210000
C           -2.77384878875871       -1.62467042091102       -0.17340819278068
C           -1.40708330493271       -1.61515433990115       -0.11258339951437
C           -0.69333735550117       -0.40732025014676       -0.02859204806467
C            0.74797442582904       -0.36037203561235        0.03123549400310
N            1.50242320513101       -1.49127076309652        0.02648607850808
B            2.93489762758723       -1.47588627727591        0.06799327319706
C            3.74199164169051       -2.81797733014406        0.03482322305517
C            4.81891439699850       -3.01944742760845        0.87504207096983
C            5.51112975608164       -4.21126142878325        0.83422776802604
C            5.12355154124938       -5.20454848498913       -0.04461535835066
C            4.04405507113526       -5.00356447516175       -0.88325798030807
C            3.35513784470054       -3.80981915565716       -0.84358100811683
H            4.67652523896043       -0.09166495022251        0.14868490154159
H            3.27066674191268        1.93047290888122        0.18521219068034
H            1.13999318375736        3.02279519903732        0.16869932671511
H           -1.29112647392257        2.95569069975811        0.08009795269210
H           -3.37608884730188        1.68829145898275       -0.05817436986791
H           -4.56465239051979       -0.44829566925894       -0.20154787243572
H           -3.30318522418920       -2.56133410630343       -0.23925398002498
H           -0.87504615428417       -2.54836681081032       -0.13408761916771
H            1.05194474196842       -2.39682099457816        0.01117397024325
H            5.10646697002165       -2.23958641350475        1.55888577196169
H            6.35381324946233       -4.36769828807330        1.48774179775037
H            5.66348110428387       -6.13683374144237       -0.07582249535934
H            3.74031537568483       -5.77880723427017       -1.56764996293377
H            2.51563918722827       -3.63718152950803       -1.49452153804859
