70
 energy: -15.185297436208 gnorm: 0.000515049689 xtb: 6.6.1 (8d0f1dd)
C            0.86702263511008       -1.75448603841566       -1.32628673680103
C           -0.46161415500033       -1.92849667600724       -1.46449284021568
C           -1.52966112360857       -1.26447136513862       -0.72802697540080
C           -2.71236352394970       -1.96533284838039       -0.47956954894726
C           -3.75602741422598       -1.39056005138484        0.20749391062679
C           -3.64986705769912       -0.09119655685008        0.66493516746034
C           -2.50558087017955        0.62971761443877        0.41856697486472
C           -1.43882111882938        0.07439928231132       -0.29116175806424
C           -0.24456724771496        0.89401800862536       -0.58144288773299
C           -0.30401155005500        2.09756523370163       -1.22440877079336
C           -1.44471413284815        2.71131731190513       -1.87622760759506
C           -2.56950086889473        1.99033334127300       -2.28993787238934
C           -3.62356055444989        2.61070915711108       -2.91410665994486
C           -3.60344237330662        3.98366847651938       -3.17189310410132
C           -4.74281263376724        4.65611868782572       -3.82684610537539
C           -5.56083000482329        3.97656478044286       -4.73347318744022
C           -6.62913560665838        4.60004590339136       -5.32986119284819
C           -6.93893363449024        5.93367388604987       -5.04200341371945
C           -8.07036653754415        6.61059265248193       -5.67232258914338
C           -9.34136300838620        6.13174905434877       -5.77836866673826
C          -10.41962536814936        6.77058614287126       -6.54002839094205
C          -10.43033615275242        7.92339682342833       -7.31736835373287
C          -11.60291675127419        8.29683990750811       -7.94141662140919
C          -12.75891305299139        7.53863909371473       -7.80090406452716
C          -12.76266058238305        6.39210030287056       -7.03330672158038
C          -11.58735581948931        6.00597528091750       -6.40254124091020
C          -11.29211934778963        4.87474075166962       -5.52537090561651
C          -12.11426163213396        3.86540591550183       -5.04163764604727
C          -11.58864181514938        2.94478977448827       -4.15928622540683
C          -10.26407900969267        3.03142515213512       -3.75080077510765
C           -9.44082633420683        4.03057709334243       -4.22613907825546
C           -9.94456265241899        4.95411730676391       -5.13643073265249
C           -6.10193414433432        6.62304860527542       -4.15897516041775
C           -5.03736043631118        5.99604104595471       -3.56005364641030
C           -2.46928995092858        4.70115548245393       -2.78373509395212
C           -1.41708080979339        4.08168138085610       -2.15563949195118
C            1.05777463768901        0.42096356081335       -0.06726139736034
C            1.82058768317787        1.25128946029133        0.75596575966969
C            3.05070705722727        0.85463122536382        1.22430514603459
C            3.55483043020084       -0.38250619923624        0.87202576528878
C            2.82502184522072       -1.21617060830920        0.05701940360707
C            1.56497230670577       -0.84820731857576       -0.42175001481033
H            1.51035148793402       -2.39720988523369       -1.90677419598269
H           -0.79011044055290       -2.69875805367520       -2.14456585014909
H           -2.79555251208541       -2.98107715102310       -0.82715327018807
H           -4.65550663631029       -1.95478976525445        0.39294940810728
H           -4.46539716734632        0.35822924925849        1.20768640153419
H           -2.42364331656584        1.64683418468552        0.76185611421356
H            0.61571328661641        2.65429762762035       -1.27979441272328
H           -2.60152219854416        0.92862213964644       -2.12603370232598
H           -4.48911060465441        2.03594776960851       -3.19391444190873
H           -5.33416468611006        2.95441865335353       -4.98167645251533
H           -7.23961487410437        4.06813526734895       -6.03954744286665
H           -7.87535523193565        7.58335322561082       -6.09230477268325
H           -9.53419026299889        8.50805883058887       -7.42700639119569
H          -11.62226115650323        9.18847850567748       -8.54655143094471
H          -13.66358995499773        7.85041722789784       -8.29678323665596
H          -13.65409066945903        5.80142739883119       -6.91578474849654
H          -13.14449606975518        3.81933557003304       -5.34803170365468
H          -12.21529878208105        2.15715819756340       -3.77395007637396
H           -9.87583450225254        2.31105489472088       -3.04939980999110
H           -8.42635091910609        4.11138208582694       -3.88281309441731
H           -6.31819469395345        7.65436126643820       -3.93838304372759
H           -4.42943073739017        6.53753165749147       -2.85656179853345
H           -2.41505046499599        5.75413896239104       -2.99830269502852
H           -0.55294717935828        4.65414963406721       -1.86431321568948
H            1.42526927174748        2.21466297287278        1.02938398033845
H            3.62223574548059        1.50860687738965        1.86264628324034
H            4.52184170855435       -0.69235393571613        1.23358018528547
H            3.22465224157244       -2.17671344235363       -0.22065323587847
