74
 energy: -15.942580330595 gnorm: 0.000352718711 xtb: 6.6.1 (8d0f1dd)
C            0.85632377906698       -1.90813240367584       -0.91754887059626
C           -0.48457258583011       -2.02951107642506       -0.88708499198617
C           -1.44170759694578       -1.17570577089415       -0.19503680422795
C           -2.61962971030290       -1.74441238105158        0.29517081458549
C           -3.56643538019072       -0.98656716578487        0.94444656100992
C           -3.36508502188224        0.36871852573271        1.11963097603269
C           -2.22305563381669        0.95916465646539        0.63236373947070
C           -1.25381413216115        0.21450112505535       -0.04245706883682
C           -0.06630819537931        0.89399741927003       -0.60039098873126
C           -0.15664831531959        1.95660336927337       -1.45334097642926
C           -1.34930665078098        2.47180764585558       -2.10019754542526
C           -2.49376394063848        1.69384092931240       -2.30363117142356
C           -3.60079571668101        2.20735325980552       -2.93150664206515
C           -3.61688098669535        3.52232556515372       -3.40117789986102
C           -4.81357469976217        4.07596500108657       -4.06579593311108
C           -6.09722898244390        3.70661318622839       -3.65763018832637
C           -7.21205956171268        4.22104345270743       -4.27263568309572
C           -7.10070599632281        5.13746624715457       -5.32363541203318
C           -8.30256502798582        5.63413999152055       -5.96696572160057
C           -8.43751060290359        6.75094326240387       -6.74073629536709
C           -9.73099691318679        7.01594850188897       -7.40434292403552
C          -10.90749233234069        7.02795364521465       -6.65347453509462
C          -12.12910202546845        7.24259955351114       -7.24708726646172
C          -12.20533910974581        7.44154008201443       -8.61199309642393
C          -11.06039209251102        7.42735701887455       -9.37446781505460
C           -9.80351446994958        7.22726325470087       -8.79854621974859
C           -8.63461075798590        7.16910718345783       -9.66952430634988
C           -7.37247304340578        7.54751209158400       -9.39078645981297
C           -6.86679935385138        8.12198356807131       -8.15035382075602
C           -5.80737786100578        9.03030792865429       -8.21103776243426
C           -5.28193088011380        9.59702185355441       -7.07294732822150
C           -5.79917728900531        9.26771974645235       -5.83506887513113
C           -6.82948174114731        8.36198566273693       -5.74296909421412
C           -7.36952060997227        7.76179781484583       -6.88199069941493
C           -5.81333543928938        5.49043646536939       -5.74184676386713
C           -4.69878359767896        4.97895855744068       -5.12475006430233
C           -2.46679227799013        4.29465829934068       -3.22251529130698
C           -1.35973880702383        3.78167042157290       -2.59162687677888
C            1.26485109287589        0.45353233736266       -0.13411114601350
C            2.14329878855336        1.37891406313079        0.43165627137990
C            3.39905672518608        1.00607712336758        0.84980527201392
C            3.81230967552269       -0.30387170061423        0.70363829218418
C            2.96733101434169       -1.23292542143327        0.14224328085982
C            1.68069785620258       -0.88816443026209       -0.27867931700681
H            1.40938623670720       -2.68384354887768       -1.42393748899878
H           -0.91341224782001       -2.89406559729343       -1.36910786168762
H           -2.77748421812107       -2.80163604529518        0.16544881161936
H           -4.46463306344800       -1.45008450644235        1.31890494041124
H           -4.10496019669887        0.96301871636211        1.63058724094704
H           -2.06865823316326        2.01763686563319        0.75462841068296
H            0.76411268237659        2.45555882497429       -1.70236478891569
H           -2.49681985235946        0.67036974155299       -1.97494548372716
H           -4.46592602080623        1.58584798065336       -3.08512398147421
H           -6.20732884912899        3.02127554721733       -2.83514656764681
H           -8.19317053123914        3.92631824861110       -3.94131102038534
H           -9.18288584647779        5.02720228252134       -5.84251995538335
H          -10.84547574882032        6.87321965936042       -5.58981904287128
H          -13.02603215043849        7.25245825708133       -6.64938103778719
H          -13.16287884340527        7.60442981680645       -9.07937189114481
H          -11.12457204382797        7.57585195776992      -10.43906751101896
H           -8.83660133593156        6.83266801724656      -10.67449919227573
H           -6.65148006343140        7.48983538967683      -10.19110904853236
H           -5.40554136088218        9.29414131373558       -9.17459367867514
H           -4.46868809011511       10.30064282913935       -7.14658879362557
H           -5.39151384212733        9.71478349807112       -4.94308766696223
H           -7.22630609900080        8.09126933602771       -4.77941354842648
H           -5.69815000551434        6.15971044435222       -6.57489843493764
H           -3.71874248596257        5.25728737628167       -5.47156505072540
H           -2.46184443999312        5.31347633083675       -3.56932026148473
H           -0.48479978561791        4.39454857362353       -2.45724683366335
H            1.81875193703534        2.39906543322800        0.54571523320547
H            4.06119465158699        1.73471450446314        1.28849764014074
H            4.79804216826787       -0.59667230971315        1.02679615710380
H            3.29565608609921       -2.25154739769402        0.02347735424748
