46
 energy: -8.513165156166 gnorm: 0.000678065411 xtb: 6.6.1 (8d0f1dd)
C            0.91075558684546       -0.35838817970936        0.51667982514102
C            2.05262584915602        0.00271016969196        0.33316959978535
C            3.40223784146368        0.41997641395361        0.14728920828676
C            4.41774216358234       -0.75389440026754        0.27170036542433
N            5.40301890115186       -0.47394392529489        1.36240186820254
C            6.20867755300320        0.73009586540797        1.00130179630676
C            5.29769046541184        1.95734543213602        0.81152070981628
C            3.84523609669857        1.54610477613636        1.14607816442245
C            3.82824910080193        0.98999053029728        2.59161633737647
C            4.68652110166909       -0.29460111961212        2.66750409256734
C            5.63541828153694       -0.35101612375499        3.89811023593884
O            5.14904207358481        0.47571712799022        4.95461878146248
C            5.90467845723790       -1.77065877032974        4.35875440062780
C            5.33333196423435       -2.24258852709793        5.50041747251435
C            5.58059745070846       -3.54108781867976        5.93444428830293
N            6.35084518240128       -4.39991857210943        5.32893162549470
C            6.94669309330710       -3.96755755021942        4.18969120530386
C            7.80746530135873       -4.85162321723790        3.50217497369702
C            8.43535114161151       -4.48978144133908        2.35349921870004
C            8.24104891487011       -3.20596438876587        1.79554159252020
O            8.83753125006662       -2.75543385019819        0.61489988668211
C            9.69993868233331       -3.68158495501633        0.00063012427147
C            7.40080970030180       -2.33378191012418        2.45589439311325
C            6.74694961647513       -2.66998662184428        3.65389010742290
H           -0.09146667103351       -0.68182274015593        0.68320500212560
H            3.47106119189611        0.83294104500639       -0.87314823898251
H            4.96407290031289       -0.92482741538443       -0.66065998363578
H            3.89674615389104       -1.68679360239675        0.50208060526952
H            6.76985976966840        0.50274832418440        0.08868688553460
H            6.95952917289742        0.91068299257304        1.77540350771733
H            5.35566630920858        2.32991408831912       -0.21793635722897
H            5.61747618730422        2.78612600395823        1.45416640832060
H            3.16020450154466        2.40543789703021        1.05924156870561
H            2.80207390112947        0.80226752322792        2.92685285329313
H            4.24485567104222        1.73476052159956        3.27727508852877
H            4.00638302417939       -1.15401654096581        2.75754011703463
H            6.59786375423112        0.10355268473977        3.62898301276231
H            4.23045440001815        0.21052164424447        5.18283833468658
H            4.69881991679161       -1.60017834228274        6.08426122908305
H            5.11233264684273       -3.88294646720268        6.84465688632426
H            7.95418084556588       -5.83298389344326        3.91856523559952
H            9.08257020157150       -5.19091639251763        1.85906725422756
H           10.12285927221999       -3.22056713581554       -0.89250175177708
H            9.14290000974104       -4.57298554586590       -0.29029863094610
H           10.51095274001771       -3.94194675461341        0.68184588606087
H            7.23112833115205       -1.37859683824681        2.00450481391453
