78
 energy: -17.165520490457 gnorm: 0.000689901018 xtb: 6.6.1 (8d0f1dd)
C            4.21692875626206       -0.49212654329847       -0.45771672603057
C            4.14930121484089        0.84770184487423       -0.43941519772445
C            2.77895470859381        1.18983926014776       -0.18894452030801
N            2.03383041102535        0.06368960883044       -0.07762769930078
C            2.89128526670516       -0.97795823366394       -0.20324211604337
C            2.60945928463094       -2.36514417467060       -0.05916397508572
C            3.72278149776991       -3.34206277207347       -0.07971469505510
C            4.80330798447172       -3.22415306881999        0.80128569928418
C            5.83134556369973       -4.13802718386909        0.78422899304416
C            5.80830736992711       -5.19135315648483       -0.10897266665227
C            4.75040397985074       -5.32873370073068       -0.98640868925529
C            3.71923914065961       -4.41826199173900       -0.97347017164564
C            1.28770903271242       -2.84216754139717        0.12270794706195
C            0.90878846073448       -4.18714090611887        0.36278758670363
C           -0.45107859694395       -4.24330442021519        0.41452436746467
C           -0.96255021732762       -2.93200604511874        0.22634172880989
N            0.13211593157914       -2.10146354850010        0.06320497318710
C           -2.33979031274588       -2.60364655908241        0.10386208804001
C           -3.34632954703330       -3.69171692102345        0.05389765437362
C           -3.49556581889530       -4.58553695657973        1.12100004700020
C           -4.43166946723746       -5.59222566053611        1.07361736657215
C           -5.24231427917105       -5.73450894333314       -0.03556012316725
C           -5.11315690789981       -4.86440602066506       -1.10055136179247
C           -4.17881833962824       -3.85590094422891       -1.05968019553201
C           -2.77183576013822       -1.25114481824506       -0.01496036544076
C           -2.05048722569715       -0.08568862452956        0.21811357204195
C           -2.91573848329443        0.98089870528766       -0.03694686598494
C           -2.59321401966675        2.36478341092969        0.04094844360720
C           -3.67598993885069        3.35012720029098       -0.08795110126644
C           -4.95416437319009        3.08210894081300        0.41284943248219
C           -5.97009820538677        4.00276786197060        0.30247886176129
C           -5.74281125512157        5.21364700428228       -0.32125406687507
C           -4.49473446639844        5.49537094784815       -0.84115812390566
C           -3.47571652753513        4.57763533439170       -0.73028253419024
C           -1.24825225852702        2.79138550433354        0.23691625242971
C           -0.84642965200774        4.09561195095736        0.62860384012300
C            0.51418422888569        4.14528533492236        0.62941907816987
C            1.00528193994924        2.86913580376620        0.25727277809210
N           -0.08707886370536        2.05996742137615        0.04572877463472
C            2.36471237989233        2.53305550802794        0.02822831139882
C            3.38297659693328        3.61354437004967        0.03762685303618
C            4.12701084563509        3.90946591607299       -1.10983938058063
C            5.07170450712843        4.90924475172302       -1.10002559965740
C            5.29745493564500        5.63877596815623        0.05077072319602
C            4.57371681539576        5.36437290884374        1.19485081461045
C            3.62812188988381        4.36522189474664        1.19166832290290
N           -4.16744455874996        0.49349917140804       -0.38182264159634
C           -4.08840893746229       -0.80142788924585       -0.36302683503368
H            5.09845604773972       -1.08907277655242       -0.62182353648845
H            4.96997456993098        1.53414873896312       -0.56412456835814
H            4.81122303245389       -2.41177030440475        1.50769369480711
H            6.65504973305167       -4.03370598572891        1.47155697936582
H            6.61492266161193       -5.90606959314068       -0.12067048289996
H            4.73377285878066       -6.15002739493607       -1.68419762617397
H            2.89965912809903       -4.51676725212601       -1.66441248627544
H            1.58330066034938       -5.01962517506602        0.47176091007427
H           -1.04008199097201       -5.13462437084392        0.54801398065947
H            0.14740120975692       -1.11713236411977       -0.20836301623116
H           -2.87585806441399       -4.46178018040243        1.99251546874763
H           -4.53539607627303       -6.26967779661837        1.90539520841669
H           -5.97535610048930       -6.52391593313370       -0.07005542218213
H           -5.74399304108881       -4.97808725503120       -1.96698014121470
H           -4.06254442491082       -3.19076146280622       -1.89808196699449
H           -1.06830505400647       -0.01344543408195        0.64109995575595
H           -5.13458703279058        2.13398027091039        0.88858968554431
H           -6.94633264519916        3.77685227845847        0.69943942624246
H           -6.53980716063534        5.93379647538700       -0.40937535068396
H           -4.32023855824569        6.43496622480974       -1.33958774439586
H           -2.51539327267828        4.78715829382563       -1.16850285020457
H           -1.50661705701706        4.90429342112488        0.89374011616935
H            1.11606483677959        5.00931305730197        0.85401006312096
H            0.00397348486641        1.15083418134079       -0.41433320538683
H            3.94038510858252        3.34703974134338       -2.00866212552035
H            5.63539609618911        5.12524523976571       -1.99285386360390
H            6.03814179420820        6.42175953975396        0.05604089047553
H            4.75236941425978        5.93272402010267        2.09295080944820
H            3.07382481919561        4.13894473384393        2.08636452757558
H           -4.92734970733212       -1.44449293782013       -0.57655618769350
