78
 energy: -14.802042055289 gnorm: 0.000995329394 xtb: 6.6.1 (8d0f1dd)
C            4.24236497395222       -0.46446382653810       -0.06844660503258
C            4.13207359199727        0.87171052474699       -0.02461936546524
C            2.72950973511070        1.17232314418913        0.04270120597627
N            2.01426374228519        0.02517929707173        0.05191148386682
C            2.90862103800705       -0.98683771456263       -0.01429977741462
C            2.62967550018633       -2.37562419510468       -0.07235854658351
C            3.75029969238014       -3.34201651862993       -0.16241346256046
C            4.74650738117132       -3.38374176448540        0.81900421980185
C            5.78753415744353       -4.27853424293523        0.73080866957639
C            5.86149253260835       -5.15379349691435       -0.33502219085012
C            4.88816356781511       -5.13146814837794       -1.31468166814661
C            3.84490367710111       -4.23870084699239       -1.23221240698793
C            1.29946959393904       -2.85909861323866       -0.05851262152441
C            0.93419809321776       -4.22689900417001       -0.11995720317505
C           -0.42169452259287       -4.30623119597629       -0.06892555490754
C           -0.94138729978686       -2.99106066452773        0.04608752993859
N            0.13751678498815       -2.12411917622051        0.04036589466163
C           -2.32270951603678       -2.68301123133089        0.12113877384923
C           -3.31737595071854       -3.78009682605031        0.10588500277407
C           -3.25482413238242       -4.82687004037927        1.03335224911463
C           -4.18705914326323       -5.83814011732293        1.02150373827157
C           -5.20548763323928       -5.83239661076842        0.08840328539475
C           -5.28893546522407       -4.80874798067699       -0.83517327923353
C           -4.35937935855415       -3.79511730532501       -0.82901277213169
C           -2.78136432697574       -1.33205910920176        0.23148426774642
N           -2.06630019385951       -0.18709159897160        0.27835080210955
C           -2.94635262240591        0.82838229324927        0.42945378395527
C           -2.66437831358896        2.22293520546430        0.49580183835677
C           -3.76967799289074        3.17472511867811        0.65511053044806
C           -4.99183996883816        2.79028018907896        1.13788847834906
C           -5.97955536120889        3.65085978543720        1.27640363311671
C           -5.81466392156775        4.92149068403407        0.94952241673805
C           -4.65190211362715        5.34092253952780        0.47973869945581
C           -3.64798542799250        4.50052177693050        0.33153993598833
C           -1.31609850166871        2.67944198580593        0.40667771909799
C           -0.94548684787800        4.01975911650649        0.45588509702467
C            0.35036289730797        4.08219401741199        0.35877435875497
C            0.83913938961424        2.78183868938559        0.26098741234511
N           -0.20074205586752        1.91248471399648        0.28488050555641
C            2.23078706698371        2.49855297962929        0.12036018968285
C            3.18162182093745        3.63375397618164        0.05399399108886
C            4.20074243841656        3.67210744370740       -0.86145464396861
C            5.03332458342264        4.69162037081267       -0.91338527150417
C            4.90246860606595        5.71031556759656       -0.08012813644543
C            3.92980663603584        5.71827849446559        0.81602260709650
C            3.08092055764397        4.71322369885112        0.89259764404599
C           -4.23700805740126        0.32060196127051        0.46609017000387
C           -4.15764562833941       -0.96877861114602        0.36363447910836
H            5.15417582377238       -1.03325230282675       -0.14154935206420
H            4.94438260835187        1.57851968243571       -0.03062829349646
H            4.67948971441615       -2.70971031929482        1.65573604500684
H            6.54579698678871       -4.29826813905439        1.49646786801094
H            6.67794156676650       -5.85416745564258       -0.40183571980716
H            4.94750927942634       -5.81362483162220       -2.14697600047306
H            3.09290224280093       -4.21062318146232       -2.00198056520204
H            1.61529339908776       -5.05817163452991       -0.18864483123949
H           -1.00259532760652       -5.21168149923739       -0.11634446770098
H            0.11832704607204       -1.09973726559860        0.10284425837919
H           -2.47377000634323       -4.81864743450774        1.77415293447619
H           -4.12540815614286       -6.63473587319165        1.74481685137677
H           -5.93542137426180       -6.62533025128591        0.08198100013112
H           -6.08348530265020       -4.80528352341208       -1.56334396605972
H           -4.41532697084990       -3.00435650065577       -1.55741393079604
H           -5.92099836237936        0.50593639002849        1.43839572514212
H          -11.96661325349313        4.60381079402337        3.55174211727679
H           -9.75221017272950       10.25515031755429       -0.37933377637666
H           -4.10213852813895        9.25668641259138       -5.86890339778779
H            0.56986340267088        0.73585290121718       -1.70710286263214
H            1.80418099941612        5.35342084373323       -1.82748933265356
H            4.05591115953675        8.43749513401817       -0.67682981799758
H           -0.24767883340368       -2.38871495084046       -2.57069067649955
H            2.54692016331873       -1.48396390612202       -2.74915934946632
H           10.13620794035556        6.32066014944466       -4.81750935148143
H            8.79742918885249       10.88470118217296        0.72971471170038
H            3.24638989303393        9.63254738785352        5.96933991927570
H            0.64305725534594        0.44790061812621        2.00165497592791
H           -5.12434822634889        1.13575646668493       -0.96954461279299
H           -5.00826786297518       -1.63102394502043        0.37800678370236
