66
 energy: -14.695770449218 gnorm: 0.000624817175 xtb: 6.6.1 (8d0f1dd)
C            4.24577363430697       -0.50966777264698       -0.06130631697899
C            4.19370712663158        0.83124023338109       -0.03499306175109
C            2.81193292927533        1.18872629793627        0.00028597678589
N            2.04379383308173        0.07544358991005        0.00169467452546
C            2.89637617018868       -0.97440470239261       -0.02968087846311
C            2.57871962612078       -2.36001320224814       -0.05120523977733
C            3.67076086694971       -3.31804811448719       -0.19724206272246
C            3.60828880488887       -4.56101133197932       -0.83627722405505
C            4.86359456820712       -5.12862589193174       -0.75705457977107
C            5.66543785089351       -4.23233293506245       -0.08325879330798
O            4.96226320430692       -3.12690666916220        0.25530879018744
C            1.24216624506722       -2.81638009124587        0.07765737433671
C            0.84500099626359       -4.16325096068468        0.24813176096569
C           -0.51519875907747       -4.20258149799129        0.30031335276915
C           -1.00506930526402       -2.88392177743270        0.18880507417078
N            0.09148029870123       -2.05529720154239        0.07723266529860
C           -2.37788639018284       -2.53811363247315        0.14972485325849
C           -3.34966612098098       -3.62369467116669        0.06436661380831
C           -4.59063947596249       -3.58140811223174       -0.58019763133550
C           -5.16419258852185       -4.82977585392125       -0.45120094176458
C           -4.27335258086226       -5.60743661278180        0.25749618943168
O           -3.16549828799104       -4.89589586226929        0.57085477222793
C           -2.80725811958362       -1.18038483151754        0.18414779743684
N           -2.03759138836091       -0.07538771549424        0.05564749919783
C           -2.87725084784407        0.98286092941892        0.11653286212449
C           -2.56783757464177        2.35942028208305       -0.06788153518844
C           -3.67647397342785        3.30356126471389       -0.19794006477847
C           -3.70432925419368        4.44858122479511       -1.00141280009997
C           -4.94270104358396        5.03533227779963       -0.83896647092623
C           -5.64591886324438        4.24664036890039        0.04637128988012
O           -4.89848599200521        3.18858029315357        0.43747579698802
C           -1.22811608871062        2.82320123191524       -0.09970570684819
C           -0.83016569948595        4.17875492172493       -0.14515356396306
C            0.53038809312921        4.22873447877822       -0.10562023501510
C            1.02229781316934        2.90762085824238       -0.00359715008708
N           -0.07457208425570        2.07160841765300       -0.01538449284910
C            2.39156917668743        2.54529482220900        0.06890975169663
C            3.41699836895063        3.57797264338211        0.20023379647441
C            3.30171755779037        4.78003826479186        0.90657578533005
C            4.50468392381815        5.44522502701742        0.78562214613283
C            5.32785960201911        4.64700166861057        0.02030034762569
O            4.68886186138726        3.50859861765950       -0.33567500714630
C           -4.21537660309509        0.53407888268231        0.32807741753963
C           -4.17288182413306       -0.80654263198477        0.38518025612234
H            5.12895429558037       -1.12500798503179       -0.08033316141998
H            5.02522384292164        1.51489434960154       -0.05130124567123
H            2.75780324181154       -4.97109815704925       -1.35383795304191
H            5.16361565622002       -6.08354792039063       -1.15606106431898
H            6.71471460160946       -4.37244591216005        0.14631528039549
H            1.49858666876360       -5.01013857628828        0.36691136306184
H           -1.12604976236188       -5.07971012269631        0.42650388930808
H            0.05457189591484       -1.03328187132608       -0.02425229051577
H           -4.99390123223940       -2.75123936284066       -1.13498042687469
H           -6.11780673156291       -5.14224608642298       -0.84377093500415
H           -4.41805995836492       -6.64675718537477        0.52602027078195
H           -2.93228693264491        4.77117015580980       -1.67919509308744
H           -5.29743956691239        5.93158558348258       -1.32061370720499
H           -6.65825610594115        4.42687198974605        0.38687479962471
H           -1.48293781354270        5.03410419880354       -0.15854609106255
H            1.12398067922939        5.12359349030865       -0.17818562937212
H           -0.03892183668523        1.04672063470688        0.05269693185274
H            2.45658624910444        5.09599146284742        1.49430348914981
H            4.75693314702443        6.39996123536202        1.21681823399813
H            6.34809802553722        4.87787285831227       -0.26095832357388
H           -5.08100948130074        1.16287854449219        0.44714689467616
H           -5.00132856858866       -1.46056584800674        0.59907168081110
