64
 energy: -13.985249972977 gnorm: 0.000905785505 xtb: 6.6.1 (8d0f1dd)
C           -1.00173388285308       -0.79902225669123        4.26958661666461
C           -0.39340813701458       -0.22346425952700        3.21623837088485
C           -1.13694469696166        0.95040711556959        2.88814316434429
N           -2.14759367521617        1.10039295522831        3.77807136533654
C           -2.11268780126232        0.03462517147235        4.61648900180050
C           -3.10850709529384       -0.30229144883718        5.58659526151723
C           -2.98109889336501       -1.47764344043830        6.43717912491467
C           -1.79614600368762       -2.05995917826308        6.90487677197479
C           -2.15146259802807       -3.12984976670625        7.69728833220484
C           -3.53191155646658       -3.18131182034936        7.70705851993081
O           -4.04952432495794       -2.18207628810182        6.95905351683589
C           -4.27775224590359        0.48401383167841        5.72301179989688
C           -5.42505673479596        0.19035773015879        6.46385537568434
C           -6.40943990831462        1.17385304610975        6.43510964674259
C           -6.06583163720260        2.29343215583180        5.68469735294750
S           -4.47763823358612        2.04878767548394        5.02469844821177
C           -6.84098888116749        3.43794726866109        5.36027280366451
C           -8.26745229617624        3.44006576579920        5.57333733330972
C           -9.14586341283703        4.41996640841533        5.10519871067008
C          -10.40978920841216        4.05808183823095        5.51898135914167
C          -10.27789155900910        2.87610337950896        6.22569980490378
O           -8.98312767866076        2.48735377645970        6.26821534592369
C           -6.17874761222015        4.51751886360681        4.64049675406401
N           -6.38010532190215        4.79863102304243        3.32743941947421
C           -5.24152650499752        5.36973493350882        2.85822191363059
C           -4.80547245398548        5.29449565444378        1.47441082205265
C           -5.68754649084324        5.77910250073576        0.43284949192635
C           -5.68140474065785        5.41651346232856       -0.91787501997133
C           -6.71008671712829        6.10316176023014       -1.52601018833680
C           -7.31932486572787        6.86490144393195       -0.54645804747100
O           -6.71236200805267        6.67787708947202        0.64662445291485
C           -3.63777365798356        4.51846084501052        1.20162613113964
C           -2.84791574044941        4.43160836396001        0.05729252059379
C           -1.83821583049812        3.47636819329706        0.13404056177735
C           -1.77495241551031        2.77826733616626        1.34400971208216
S           -3.02631873548849        3.38035341352712        2.36729120448770
C           -0.87541495850664        1.75237997627311        1.73490523917542
C            0.31075221644054        1.46711321591326        0.94166656614774
C            1.00159272159755        2.37206180137479        0.12549079782028
C            2.07172748609084        1.69798397701944       -0.42117503549095
C            2.02351923239420        0.40681147437939        0.06678422224770
O            0.96998557142428        0.25311738629835        0.89873750582925
C           -4.31728553210960        5.53781173641865        3.94125006156599
C           -4.89122573510045        5.01147985427778        5.03432146818004
H           -0.74646660658821       -1.75363955207921        4.69519877259366
H            0.44831868784281       -0.60768352951432        2.66647829555936
H           -0.79639740270890       -1.69361856366076        6.74712343933484
H           -1.48159785851522       -3.79177722103861        8.22108408133606
H           -4.13315695716760       -3.90854678228973        8.23899947048300
H           -5.53400869099932       -0.74224839067841        6.99395896532704
H           -7.37140227988522        1.08063661338966        6.91414735294919
H           -8.87364973922783        5.27774228533948        4.51386692142130
H          -11.32603852145539        4.59088313027780        5.32413050715387
H          -11.08733873042355        2.32300660418914        6.68656301165453
H           -5.03422568719280        4.69426949365843       -1.38369370112993
H           -6.99470373050348        6.04876182554211       -2.56395367107190
H           -8.16801792123619        7.52189512840169       -0.69373125356430
H           -3.00056867293167        5.05833812739315       -0.80676281936163
H           -1.19160041226241        3.25546669742106       -0.69993853407381
H            0.78137391552617        3.41836176924005        0.00182799621237
H            2.81208535604699        2.10220468985842       -1.09175949272691
H            2.72687287945342       -0.38280524022197       -0.16772949240008
H           -3.31436800236397        5.92482635566629        3.86273409800797
H           -4.43904707103764        4.89325259419601        6.00561747095560
