66
 energy: -14.337318189463 gnorm: 0.000420667764 xtb: 6.6.1 (8d0f1dd)
C            4.29018101892393       -0.49636887516714        0.02380487421534
C            4.23842580380112        0.81597330252015        0.29121490520438
C            2.85620654661207        1.18854823851133        0.27971633555238
N            2.09086987113918        0.09855757445492        0.03774812479835
C            2.93826325735153       -0.94360017594284       -0.12811822157944
C            2.59141744424831       -2.30581240283303       -0.40050295497830
C            3.60061701246758       -3.21918082170128       -0.89238274544585
C            3.40340360290756       -4.44772725297353       -1.48460591320939
C            4.59488308046447       -5.14106723566156       -1.81351609251480
C            5.72543442931122       -4.45803183041567       -1.50853748071091
S            5.32435984411704       -2.91720985397693       -0.85088635904549
C            1.27731130946754       -2.78727668787567       -0.11337635884802
C            0.92774389333319       -4.13993588640407        0.10856383723702
C           -0.41021350640958       -4.20155373502128        0.35102162630286
C           -0.93912833870909       -2.89085047975340        0.29946782332598
N            0.12466704341597       -2.04785973973335        0.05062399301975
C           -2.30616324397588       -2.53264726494689        0.47899232487311
C           -3.30890801698964       -3.57132662521729        0.57190606003154
C           -4.67560663695848       -3.44747598163195        0.44136360983783
C           -5.39970566919065       -4.64588763024613        0.66185295544071
C           -4.61320674127031       -5.71592886470585        0.93426835663464
S           -2.95391584262595       -5.26187441294651        0.85230456157926
C           -2.67782313073421       -1.15240679348731        0.54331954245548
N           -1.95755608696989       -0.11094142782981        0.07009323371672
C           -2.75191820551327        0.98041860506222        0.16263045541154
C           -2.47307670678367        2.28193039961242       -0.38936586901331
C           -3.56215487337676        3.08522794249929       -0.89850366976331
C           -3.49654055894555        4.17625066577215       -1.73659949499335
C           -4.75346679088669        4.75550910464690       -2.04020517770211
C           -5.80119483272113        4.11724826200501       -1.46338664487531
S           -5.24569816548869        2.76378465225813       -0.55816710453842
C           -1.13562440681431        2.77551226969379       -0.36358659796550
C           -0.72282129881028        4.11981693627060       -0.51594587984617
C            0.61606167220464        4.18697995073151       -0.26462014059993
C            1.07410929210126        2.89152677550680        0.07332910996252
N           -0.01323237219191        2.05126782451625       -0.02290184621275
C            2.40873960558934        2.53700349364940        0.43766062272122
C            3.33249067937809        3.55759710404173        0.88220649995335
C            3.03059211683365        4.81716801717651        1.35251214834948
C            4.15925457867571        5.62120418896280        1.65021051903213
C            5.34456331108832        4.99634345171363        1.44439275389168
S            5.07401298938422        3.37522873262898        0.92548228470190
C           -3.98014846852308        0.63560762189696        0.81608614232765
C           -3.92423537797119       -0.68184243355998        1.07025423356065
H            5.18758130702849       -1.09088369261540       -0.03540908186007
H            5.08991349059306        1.46032773968079        0.44972187045400
H            2.42627916778997       -4.83557844552285       -1.72552410635846
H            4.59903753478488       -6.12336826874603       -2.26379224265436
H            6.72988833567919       -4.80116740047190       -1.66939227739330
H            1.60813771669821       -4.97290404505642        0.15959582392997
H           -0.95705454602841       -5.10504591420096        0.56090294088718
H            0.06222030232723       -1.02638445968206       -0.04428914650053
H           -5.16156170294069       -2.53102942957579        0.14703449759544
H           -6.47824701553487       -4.69831311416437        0.61912852450827
H           -4.95659979477325       -6.71272709159844        1.13691854186325
H           -2.58062299241420        4.52110300248278       -2.18869519780827
H           -4.86432774623014        5.62246394877446       -2.67569900331922
H           -6.83447388618141        4.39182381147600       -1.56083956354096
H           -1.35708618099679        4.96851110361776       -0.70302425824967
H            1.22316695765121        5.07123620692642       -0.35851380302864
H            0.00158614637810        1.04098656703197        0.16704334826434
H            2.02139196489367        5.15549787492403        1.52573197139286
H            4.07983720694455        6.63888421888974        2.00472671234753
H            6.31662158726668        5.42421577995879        1.60114883408465
H           -4.76393238077762        1.30701989697845        1.12176168483524
H           -4.64700460310332       -1.25042699120166        1.63145554825868
