62
 energy: -13.715368876330 gnorm: 0.000406292145 xtb: 6.6.1 (8d0f1dd)
C            4.26043735223826       -0.50888543593795       -0.00350562879693
C            4.21495501590890        0.79962298918831        0.28420348727800
C            2.83392847472677        1.17905827402225        0.27358131127427
N            2.06412445635769        0.09722561544649        0.01684168824691
C            2.90519485057944       -0.94634621762908       -0.16173712106937
C            2.54361797579422       -2.30271779886935       -0.44745331191959
C            3.53780814497043       -3.21114809193038       -0.97073690191386
C            3.34501064483843       -4.44746019166000       -1.55330626553622
N            4.45848224768370       -5.12612420139790       -1.93787292930569
C            5.54203957477184       -4.45721426868300       -1.69978521500416
S            5.24579413743919       -2.90167517970892       -1.00434411844702
C            1.23199568584562       -2.77972033242322       -0.14393404887925
C            0.87869524163895       -4.13113530103217        0.07873783402588
C           -0.45259025599627       -4.18383462584568        0.35658308861816
C           -0.97402114261811       -2.86858076505393        0.32114139157175
N            0.08840105667550       -2.03337848897581        0.04628392902254
C           -2.33328453644453       -2.50325764249880        0.53835148355667
C           -3.31950816472461       -3.54553529924987        0.70628864495821
C           -4.69732377388225       -3.46260283509245        0.66462762608573
N           -5.39154306516764       -4.60007562600808        0.93537050400490
C           -4.60810750241688       -5.60713900876208        1.15918356089037
S           -2.93112151798080       -5.21728399087059        0.98269364639321
C           -2.70808047381137       -1.12372275709069        0.56032652728800
N           -1.98443492824263       -0.09809195036679        0.05989609692761
C           -2.77726729147298        0.99608428371779        0.11089842365686
C           -2.47939397641899        2.28957616564610       -0.45119946534491
C           -3.55550649588571        3.09327137211167       -0.98130300177885
C           -3.48970897467940        4.19189529668372       -1.81326559480804
N           -4.67173346866061        4.76566674656476       -2.16143834310315
C           -5.68407456346251        4.14591010523213       -1.64229221306041
S           -5.23490767920944        2.77419728026660       -0.69246619851727
C           -1.14182141332302        2.78005858560041       -0.40783829559761
C           -0.72353091141526        4.12350699937934       -0.55378472864170
C            0.61031440571009        4.18798914568228       -0.27815438955810
C            1.05995865139956        2.89023123791597        0.06180268943893
N           -0.02724317093504        2.05307270587465       -0.05180835343239
C            2.38757078921091        2.52709805988354        0.44089557471107
C            3.30760571818829        3.53370942951427        0.91543391430710
C            3.02611762688998        4.80473025645353        1.37352833673462
N            4.08584398400986        5.58055060796511        1.72504190971860
C            5.21311576556659        4.95803531147950        1.58366228859291
S            5.02871200752073        3.32684710010197        1.03483690976180
C           -4.01393604916663        0.67154685348356        0.75869010725798
C           -3.95947045142475       -0.63607720331496        1.05867290477113
H            5.15356672308293       -1.10859471422481       -0.06443867431959
H            5.06871786585853        1.43813552211979        0.45491303370366
H            2.36788246203256       -4.85956282819729       -1.75906792315969
H            6.52130466645917       -4.83482710180075       -1.93166659953635
H            1.55478793029925       -4.96830572128973        0.11300770557876
H           -1.00289525932237       -5.08575090086807        0.57780941166897
H            0.03100874862487       -1.01139064303085       -0.04496425057299
H           -5.23283866339266       -2.56852920455774        0.38325948425840
H           -4.97546195764106       -6.58838439227979        1.39906483729040
H           -2.56991292865957        4.55449884703841       -2.24757627130719
H           -6.70036463872218        4.45700072718332       -1.80273449939216
H           -1.35288627147363        4.97366802067560       -0.75042346340506
H            1.22091543724777        5.07073809597696       -0.36232059068265
H           -0.01974012191887        1.04381229906271        0.14329641057068
H            2.02131816160834        5.17876409462314        1.50346910245001
H            6.16144364443781        5.41319611895808        1.80449560575359
H           -4.79801831797506        1.35371970349656        1.03905531670091
H           -4.68129148117066       -1.17803513270247        1.64616361002225
