21
 energy: -4.612986000189 gnorm: 0.000830763150 xtb: 6.6.1 (8d0f1dd)
C           -2.62339699631760       -0.64569239948933       -0.00080605731832
N           -2.36001723232667        0.62000107311189       -0.00069568576029
C           -1.02746112140180        0.96037127012051       -0.00043726949935
C           -0.65392375497298        2.30034116066274       -0.00051196589172
C            0.68160282150506        2.67882665168951       -0.00042169368895
C            1.68048005371998        1.73899875123108       -0.00022221559397
C            1.36611733135223        0.36621396144509       -0.00011094663176
C            2.34501023197927       -0.64860587149750        0.00005994968050
C            1.98098694689842       -1.97255161621691        0.00022212234729
C            0.64304369146616       -2.34235178565321        0.00016766784511
C           -0.35198764735638       -1.37468802402819       -0.00010081823443
C            0.00227910289326       -0.01265726503517       -0.00015451073846
N           -1.70351038331454       -1.65525219403374       -0.00048518363602
H           -3.66649239707239       -0.91752513073761       -0.00076585888077
H           -1.43050000530499        3.04482778270130       -0.00068832625551
H            0.93502095476298        3.72623132883542       -0.00052645957442
H            2.71378551320712        2.03936695616732       -0.00016255179805
H            3.38433230672902       -0.36976319255004        0.00008399397807
H            2.74203301063964       -2.73544023087959        0.00035872630440
H            0.36300814949756       -3.38092400997419        0.00017069572937
H           -2.00080057658337       -2.62945721586939        0.00208638761729
