49
 energy: -9.054750552541 gnorm: 0.000596674022 xtb: 6.6.1 (8d0f1dd)
C            2.32109950644763        1.32176104063551       -0.05398485489720
C            3.36857792377643        0.73727560524898       -0.22047673374099
C            4.58232818985032        0.03382349370381       -0.38312097788215
N            4.80439481443331       -0.96355565112546        0.66926382451429
C            4.67189085150063       -2.32752724657011        0.46881215412328
O            4.42243467525602       -2.92143079785582       -0.56709830775083
C            4.88638011699048       -2.90019136170612        1.79776045029674
C            4.90710866718869       -4.24503115925886        2.04523703694844
C            5.03136266355102       -4.88282988317009        3.33001942351584
C            5.67532328064008       -6.12354002320184        3.39768476572540
C            5.91267972267897       -6.78395542450818        4.59221676050308
O            6.58442496038528       -8.01974024974309        4.51522721579496
C            6.52271488987543       -8.85688534787512        5.68618045044236
C            5.10655127611862       -9.36898633705896        5.91785460053692
C            7.51186118732726      -10.00659641017967        5.53930829585389
C            5.48941714700187       -6.16805813868316        5.77550365689793
C            4.81745787776755       -4.97505374597791        5.74192917052266
C            4.52892051862215       -4.32323086741272        4.53891679184449
O            3.70440441869221       -3.18192034625428        4.60347299473325
C            2.48624902945844       -3.26854827882630        3.82950500876480
C            1.49134491366061       -4.20055373993614        4.50480448115720
C            1.91313716365145       -1.87594510358465        3.61147998403098
N            5.12755295791304       -1.87193616403594        2.68318600759389
C            5.07356134630795       -0.75096725554107        2.02242873317279
C            5.26843357485332        0.58095392108832        2.62826046991217
H            1.39513193609135        1.83033800412397        0.08958188433913
H            5.43575765732020        0.71895837216626       -0.39491398269973
H            4.58881842400200       -0.49746878821774       -1.34145763010636
H            4.87771101355340       -4.88480133798729        1.17883019886994
H            6.03337542271378       -6.57936312632892        2.49314901521829
H            6.84587670782977       -8.23234068780492        6.53389543727740
H            4.78525591785579       -9.97128021125880        5.06917555667035
H            4.39538188830985       -8.55025175041189        6.02054072784545
H            5.04494284124334       -9.98894253725564        6.81261197170646
H            7.24683063916528      -10.62028749828895        4.67948132112255
H            7.52272780497846      -10.64693098525552        6.42179559470356
H            8.52131533655742       -9.63119557265960        5.37230100925872
H            5.68329677190504       -6.63474309819298        6.72332396789192
H            4.46323051289069       -4.52506668117983        6.65238027800242
H            2.76716217487276       -3.69179609816210        2.85252964173001
H            1.23780603221936       -3.82400384896976        5.49478749457761
H            1.91173947764482       -5.19822321658691        4.63120022751122
H            0.56883209106955       -4.28890883344529        3.93035409716359
H            1.65561475509477       -1.42249773753440        4.56756483621969
H            1.01620482579880       -1.89953974549285        2.99209866935545
H            2.64696793103850       -1.22999247995265        3.13021983828669
H            5.43199491136670        0.48943658443806        3.70188826044592
H            4.39304512631233        1.21044182294291        2.46949817897447
H            6.13363812623798        1.08058892327686        2.19306200325846
