88
 energy: -18.897088347835 gnorm: 0.000259111105 xtb: 6.6.1 (8d0f1dd)
C            2.49903120485050       -0.54546088388578       -2.25849206468238
N            3.39767890294207       -0.69294503957511       -1.31450576637434
C            3.51019452342138       -1.90653083357071       -0.55763195577635
C            2.38105011677205       -2.47515414946266        0.02008450795380
C            2.48176318047264       -3.62452553827583        0.77179587232964
C            3.71152815855545       -4.22376037334034        0.95831411055294
C            4.84083664230491       -3.66891491209130        0.39038712659553
C            4.74067756541299       -2.52050416558012       -0.36150809039032
B            4.34796603624515        0.47627237881786       -0.98814888127877
O            3.82364832628082        1.78676529618071       -1.47739197361787
C            2.93447154939089        1.83770412852440       -2.50254778152895
C            2.27211345284562        0.68154266372988       -2.93811950392328
C            1.35601703944500        0.76719173504784       -4.00657278500841
C            1.10051895775255        1.95515096780991       -4.62196986605368
C            1.73997140112368        3.13621302498121       -4.20238614142099
C            1.46559075957870        4.38300455094657       -4.83487635193901
C            2.11531842667057        5.54215581917293       -4.38800456309509
C            3.03634787663860        5.45552951289238       -3.32396627153024
C            3.30600244765509        4.26427551774502       -2.72108008509791
C            2.66483288115090        3.08350642940521       -3.13908245684895
C            1.79066228756038        6.79114590700165       -4.98297375404402
N            1.00842170246361        6.91046328909114       -6.02929828093034
C            0.58723413439103        8.19098634087377       -6.51938582542717
C            0.64494325040535        8.49747258439337       -7.87295967954878
C            0.21245138888862        9.71954370877701       -8.33538893171857
C           -0.28434364485110       10.65658280720572       -7.45165340447632
C           -0.34814819220241       10.36565727859283       -6.10354666803187
C            0.08379879049721        9.14291429624389       -5.64040970417544
B            0.51328405293037        5.63707977625610       -6.74364762425120
O            0.57403594052950        4.43508514785407       -5.85838006032097
C           -0.99675103526224        5.85021554468863       -7.20102066117299
C           -1.93542337167039        6.00955981941832       -6.21623497596011
C           -3.25298878736081        6.25203057732786       -6.54713364546355
C           -3.61937568050205        6.33367507664720       -7.87619064823766
C           -2.67641388733242        6.16978263933126       -8.86499595901091
C           -1.34110232572160        5.92103304709795       -8.54860299494594
O           -0.42560184544598        5.76204531994125       -9.59240197675707
C            0.90575153262243        5.44275547040841       -9.31029430147434
C            1.76998065297257        5.20462812411926      -10.37882453586029
C            3.09389301620960        4.89754846938996      -10.16440614477728
C            3.58771985959992        4.82188510071274       -8.87729581541498
C            2.74678087956900        5.05769563156176       -7.80938881227528
C            1.42821684608880        5.36434697551987       -8.02083573943237
C            4.53447625691052        0.56622409426669        0.59006642676175
C            3.42761019349220        0.87234384838832        1.33664188824561
C            3.51135278505906        0.91933143099094        2.71320064404813
C            4.71686167135795        0.65547809932165        3.33322857877532
C            5.82913137172820        0.35115655910872        2.58211009430401
C            5.76320087960279        0.30203880241058        1.18985943448571
O            6.92332380241565       -0.01089661268208        0.47631534531500
C            6.90509447967512       -0.00795890480813       -0.92143923697671
C            8.09760168580087       -0.25800355461931       -1.60014852132123
C            8.13839052090804       -0.28240054242182       -2.97524960663067
C            6.98905287940210       -0.05793458672332       -3.70680728108285
C            5.80053947236050        0.18851827969930       -3.05100365297614
C            5.75822302148928        0.21177379952808       -1.68181076174567
H            1.89433218021806       -1.39562234823741       -2.51271815366705
H            1.42875778360333       -1.99308394684082       -0.11586356333905
H            1.60011197598510       -4.05426294133525        1.21837185035507
H            3.79022885053124       -5.12168163556343        1.54897622522269
H            5.80272463419873       -4.13125963621439        0.54000881032450
H            5.61840750412808       -2.07882608284476       -0.79547130048602
H            0.85234084215130       -0.12726513335299       -4.33025345456428
H            0.39998944353121        2.01673358049025       -5.43667800904504
H            3.52573354078491        6.35333178794398       -2.98784288227094
H            4.00929128307933        4.20220876356930       -1.90878792370511
H            2.18669070930838        7.68890555855230       -4.54676106206259
H            1.01800020815233        7.75929334204878       -8.55845638507002
H            0.25661191345995        9.94190885788688       -9.38893324240151
H           -0.62490743884685       11.61269305194550       -7.81388321342974
H           -0.73985649831960       11.09459001338719       -5.41314332687909
H            0.02252935895976        8.90315975577422       -4.59328342015618
H           -1.62417970628548        5.94481777271314       -5.18787754472286
H           -3.99062004386899        6.37868570069831       -5.77205790500421
H           -4.64665375312511        6.52460886850625       -8.13979898247141
H           -2.95102071843924        6.22890003311088       -9.90312273129435
H            1.37382645152326        5.26549736625658      -11.37683857540404
H            3.74605470344766        4.71419710362608      -11.00247274302131
H            4.62364298156997        4.57945587869812       -8.70680250677280
H            3.11229852174257        5.00118468965651       -6.79956079790904
H            2.49924891610000        1.07188202621275        0.82977745814969
H            2.64024103745574        1.15953697502138        3.30002414997665
H            4.78726045331421        0.68992369175115        4.40798287137459
H            6.77335144239216        0.14641600215795        3.05447456384820
H            8.98641768151881       -0.43151997762210       -1.01999135042508
H            9.06941300378348       -0.47598807128180       -3.48221034328910
H            7.01923849071397       -0.07512200951033       -4.78372078986638
H            4.89422021311217        0.36650118834126       -3.60219600833600
