80
 energy: -17.171156609526 gnorm: 0.000322778362 xtb: 6.6.1 (8d0f1dd)
C            1.18046343997368       -1.93207648936105        1.12213439022614
N            2.39093692120622       -2.40948763333358        0.88676345110008
N            2.72540655509244       -3.66488978994933        0.55621420457829
C            3.89418423440110       -3.60714873362186       -0.04320940214873
C            4.56456673882529       -4.79663665440633       -0.54969289735195
C            5.81134486297410       -4.68716343690615       -1.15553557755477
C            6.46317931271246       -5.80750113061788       -1.61794351419355
C            5.87956057571763       -7.05223165299907       -1.48190485483514
C            4.64075955372082       -7.17399070112033       -0.88256541073790
C            3.98668989019748       -6.05555612328023       -0.41884060918725
O            4.47701706789550       -2.37127125393932       -0.16374769655116
B            3.61358594071857       -1.52424315138410        0.68915776757489
C            4.32485197830035       -1.29963558185744        2.11140799886580
C            5.12316723030095       -2.30726604983162        2.59653917064982
C            5.74054915750910       -2.16479899951241        3.82010885199476
C            5.55228784873883       -1.01784241193806        4.55209688671875
B            6.27232195665528       -0.90330481730957        5.98247021447391
O            7.07573519576847       -2.12173865470623        6.23219863006692
C            6.25580847927193       -2.85249380067299        7.05351261935826
C            6.56935736558041       -4.23918947995400        7.37035985355785
C            7.72423718131790       -4.82463498933330        6.86306193499248
C            8.02345325483640       -6.13767777482309        7.14645449317027
C            7.17402619772178       -6.88456050296477        7.93955240542646
C            6.02393480799441       -6.31425353598951        8.45010914689441
C            5.72226102368072       -5.00136285763362        8.16877848143193
N            5.19134847844954       -2.24750154905650        7.53338767250138
N            5.21558309970949       -0.98775229851349        7.07461408155761
C            4.62479176135027        0.07321583344779        7.59758770067269
C            5.08293173949877        1.37399279428333        7.26905815806161
C            6.28566837458006        1.49270962699568        6.54145655096814
C            6.81375288608585        2.76934089706023        6.27565964214238
C            6.18605892042846        3.89816811232563        6.69870077423036
C            4.97504714687341        3.82713543300003        7.42409708060188
C            4.31924441374000        4.99273104541202        7.86912842721330
C            3.15125145381698        4.91185299280029        8.56808372968897
C            2.58674044334752        3.66729167670114        8.84950597470639
C            3.19771010562233        2.51958931329765        8.43368530492884
C            4.40983672093881        2.55951837280060        7.71518888810868
O            6.97456455527822        0.39650193737958        6.08506620908628
C            4.74747853418524       -0.01213231088460        4.07186869334121
C            4.13152162918651       -0.15385251513813        2.84601941168574
O            3.18058357408120       -0.22344863873135        0.12646068829799
C            1.94901724510766        0.27540525532960        0.47237114426077
C            1.70218831788027        1.64469611168943        0.26305136228864
C            0.50607285985223        2.20611863541339        0.58154901061456
C           -0.53575871046885        1.42922458069792        1.13729837927861
C           -1.77971309689062        2.00323373359250        1.46887493512000
C           -2.77737353994154        1.24369185774596        2.00466795197989
C           -2.57628150669525       -0.11768770551036        2.23490448838788
C           -1.38363948123102       -0.70415165580952        1.92323590637571
C           -0.32923155892891        0.04427625438721        1.36175204244835
C            0.93477862753235       -0.53989949142633        1.01664137146423
H            0.38281234035794       -2.63279585524545        1.26384699416388
H            6.25317973893893       -3.71024021118037       -1.25311747123568
H            7.42962466835872       -5.71318590254139       -2.08517176646289
H            6.39134455811652       -7.92893297384957       -1.84329264777578
H            4.18653722261917       -8.14544701599125       -0.77682813485939
H            3.02274883072717       -6.13684381945444        0.05251009819871
H            5.26258742818881       -3.19724594525694        2.00874422213315
H            6.37292095953844       -2.93978482122235        4.21698328999567
H            8.37759611446061       -4.22904444744299        6.24874402391640
H            8.92109978079417       -6.58267603134696        6.74965553457440
H            7.40901081515279       -7.91272084584447        8.16051008588935
H            5.36212698092160       -6.89777774110557        9.06875279254652
H            4.82912356408868       -4.54553789205982        8.55924017685616
H            3.88591184294849       -0.08615599811618        8.35643024567460
H            7.73587390503832        2.82579897180428        5.72495674526534
H            6.60854334143036        4.86468890042491        6.48539262453183
H            4.75576847040699        5.95197532798974        7.65044115393412
H            2.66015649424448        5.81013314303506        8.90444449596231
H            1.66087284046193        3.61509787569978        9.39859075712664
H            2.74068676967874        1.57101015356911        8.64942321134103
H            4.60947097406907        0.87898767741518        4.65798288172623
H            3.50370107807714        0.62448428055342        2.44989977808994
H            2.49170574837934        2.23752251555293       -0.16354793815349
H            0.33779618816589        3.25519105773253        0.41039285792573
H           -1.93283866501151        3.05371603885630        1.29120531335387
H           -3.72443186507104        1.69384131397514        2.25305023648884
H           -3.36996506443880       -0.70767214854023        2.66321535566193
H           -1.24358482507206       -1.75143769923367        2.12026896458276
