35
 energy: -6.254115862668 gnorm: 0.000653735640 xtb: 6.6.1 (8d0f1dd)
C            1.46242592929892       -1.44696961982434       -0.55363545216042
C            2.43466071425122       -0.33211802484392       -0.13672977809733
C            1.76139278408275        0.90248971257320        0.45357060124263
N            0.60897554615381        1.37208631000076       -0.32636782108603
C            0.57330640783153        2.79878674309996       -0.70865767561062
C           -0.64582094179347        3.16354380824646       -1.57033260663678
C           -1.96087710887900        2.65520235505778       -0.96685082054948
N           -1.82375349801950        1.26979122406238       -0.51446266348961
C           -0.59699098488556        0.68358093797979       -0.22953224701527
C           -0.79533848160281       -0.62844822386859        0.15600159908762
C           -2.20564912231123       -0.88491244906250        0.11176249705466
C           -2.86044664390219        0.34682062610466       -0.27896085042533
N           -4.14033410443497        0.52731677168782       -0.30603823447846
C           -4.83987533526767       -0.56789998187688        0.21353131283102
C           -4.18332109067335       -1.93830595565471       -0.07122759523674
N           -2.83166654636806       -2.01570605911418        0.28285983382851
C            0.27397665890850       -1.63582466216842        0.40043083488043
H            2.01259228857386       -2.39036905407330       -0.67267934922269
H            1.05856332437199       -1.22534984592047       -1.54988966464435
H            3.04043298050376       -0.03602987781502       -1.00312653203340
H            3.15451635589363       -0.72777911831396        0.59231244990433
H            2.47573675836633        1.72479961810923        0.56344987164022
H            1.39630286295192        0.69001612631633        1.46328802227063
H            1.50752200319848        3.03528612860867       -1.22941197532819
H            0.57218856028833        3.38983004943855        0.21213517521535
H           -0.51885156801102        2.72829333400987       -2.56867048582301
H           -0.69254560814394        4.24999720165768       -1.72564018539085
H           -2.78406726732723        2.69778255711145       -1.68787987404347
H           -2.25928376080914        3.26380198395212       -0.10821174175511
H           -4.92376255294228       -0.42362111978132        1.29868963898153
H           -5.86590834282274       -0.53818183593331       -0.17965897198911
H           -4.25892812869097       -2.16149855012380       -1.14362749140736
H           -4.72211487465135       -2.74367170569315        0.44786372218856
H           -0.16386399215601       -2.63458760594534        0.27971404736252
H            0.60824677901746       -1.58093179800349        1.44190240993564
