42
 energy: -8.384587735280 gnorm: 0.000720455388 xtb: 6.6.1 (8d0f1dd)
C            0.82412818192495       -2.14283250081328       -0.44151182353610
C            1.81437120510645       -1.27233313168523       -0.52354616458144
C            1.81397672888841       -0.01605712396422        0.25977342834621
C            2.91032725786016       -1.45129326670597       -1.54177180962060
C            2.69949843561098       -0.55537655063703       -2.75015792608756
N            1.38052860232695       -0.72604922532721       -3.32614967644411
C            0.44733716582831        0.29670547182078       -3.11705296985350
O            0.72913491039772        1.27393654181569       -2.44835348627631
C           -0.88293525081511        0.14174427196682       -3.71365963303186
C           -1.82508898496337        1.13852156044057       -3.58905764402246
C           -3.08647507589136        1.00459371698894       -4.15267789594194
C           -3.41653351938223       -0.12910301501558       -4.84656831635878
C           -2.48627758835040       -1.15981769048212       -4.99110684779503
C           -1.20170084357186       -1.03575620668662       -4.42239063829606
C           -0.23905578025367       -2.09322063562681       -4.56004290588672
C           -0.54575613798480       -3.23516792210299       -5.24564616337534
C           -1.82174026254713       -3.38749316847272       -5.83064259002006
O           -2.36768219772370       -4.41975320259485       -6.55517642813465
C           -3.60347654135015       -4.00393697391112       -6.84288189028676
C           -4.59008323588500       -4.78196656845068       -7.62299798756415
N           -3.88669241026397       -2.77606324193722       -6.34629648839083
C           -2.78613874069521       -2.36093718465317       -5.70557803778346
C            1.08320635935712       -1.94335746357438       -3.95065017294643
O            1.88915955659681       -2.85552333584148       -3.97034515772041
O            4.17937216114531       -1.19879387414618       -0.98344118249821
O            5.18912638246977       -1.12535815566535       -2.05541124135265
H            0.00741911388393       -1.99212527833595        0.23473756357079
H            0.80028855399820       -3.01445862681436       -1.06396679436079
H            1.35799227665623       -0.15766138597167        1.23959594581985
H            1.26217732701214        0.76228040796087       -0.27033364713079
H            2.83545077356924        0.33690040607303        0.40811278215645
H            2.93476668163262       -2.49868524572592       -1.87965321332167
H            3.45678860365022       -0.76813474308152       -3.50958133424963
H            2.81713138300589        0.49058196739374       -2.45344521829255
H           -1.55850637168256        2.02889577156287       -3.04557639956577
H           -3.80801498399497        1.79749925599698       -4.04410118466321
H           -4.39028628652859       -0.24599496763853       -5.28981156456910
H            0.18751962163872       -4.01489976998632       -5.33684662925609
H           -4.15241199797262       -5.71354762206012       -7.97989926325760
H           -4.92991368798330       -4.20739428648868       -8.48372870875439
H           -5.45716862598594       -5.01974243159803       -7.00822890199217
H            5.71975724125508       -1.92663457602425       -1.92479178265997
