37
 energy: -7.298059600104 gnorm: 0.000905042633 xtb: 6.6.1 (8d0f1dd)
C            1.67360800113008       -1.12259533091156        1.48657059072339
C            2.50146681842058       -0.61965447345904        0.58872964240206
C            2.60326504831966        0.83820247384767        0.35417531747836
C            3.25794451800737       -1.52616725676897       -0.34634165538651
C            2.58887744953607       -1.60326662035973       -1.70743146149329
N            1.18376583504474       -1.94693445743755       -1.60547138803497
C            0.83626551333712       -3.19481557959756       -1.07153633476958
O            1.68130234161711       -3.95979015812267       -0.64525118427450
C           -0.58901655128255       -3.53944127565387       -1.02128805601454
C           -0.99493326786484       -4.77000021009356       -0.57333022717177
C           -2.34804595261128       -5.10371695515193       -0.52688705003873
C           -3.29732381102319       -4.20855428568020       -0.92494359492520
C           -2.92822201276813       -2.92814988737619       -1.38945505814635
C           -3.87761529954850       -1.97111849943932       -1.80697475413539
C           -3.47931846674310       -0.74286407567123       -2.24707044140801
C           -2.12576013397308       -0.41105739261550       -2.29356498800023
C           -1.16770058448369       -1.30968734591950       -1.90050558591121
C           -1.55688928287175       -2.59178161817567       -1.43841941536533
C            0.25522804707527       -0.95946072016306       -1.95760256627256
O            0.61981705874961        0.15397372080078       -2.28741233216156
O            4.59587389927399       -1.11055403455694       -0.50155197867631
O            5.22263543851586       -1.85695094778486       -1.60955441592288
H            1.08116856448279       -0.48788044747850        2.11309403157576
H            1.55538437298374       -2.18172756749225        1.59572834907644
H            1.80304463865664        1.17575282164741       -0.30723356424080
H            3.55599210622302        1.07877842962598       -0.12097849937196
H            2.54095232029155        1.39743978497812        1.28838430444690
H            3.30604853938349       -2.54006891993919        0.07851395442731
H            3.09762460988983       -2.33942655263120       -2.33514166398730
H            2.67312282742226       -0.63441109347547       -2.20739469305385
H           -0.24367092277846       -5.47534526247405       -0.26149618812195
H           -2.64248403965726       -6.07858686206411       -0.17461182357602
H           -4.34046448486233       -4.46955555309988       -0.88919487051208
H           -4.92278633924984       -2.22456539944088       -1.77451098757402
H           -4.21367179643661       -0.02102950689978       -2.56422527129452
H           -1.80851243267153        0.55617229942843       -2.64418737028330
H            5.88631743046188       -2.40851124038847       -1.16630877000318
