28
 energy: -5.719962165843 gnorm: 0.000905656658 xtb: 6.6.1 (8d0f1dd)
C            1.06310101584418        0.07750297698014       -0.32049255877299
C            2.22145511361951       -0.12228715635269        0.26864389397813
B            2.97588043270935       -1.47741978837795        0.42607434326574
C            2.54765930990724       -2.73423825233007       -0.27046899216282
C            3.27295627684126       -3.84917234475557       -0.05518269438486
C            4.41024711975865       -3.87691732777350        0.78828447422482
C            5.13030469013396       -5.09125474479522        0.97477264874465
C            6.22007355018531       -5.14826760290804        1.77198545109716
C            6.69090884085891       -3.99031497067598        2.45590124455111
C            7.82625232377413       -4.04667086526033        3.28357959757146
C            8.27272286876557       -2.93081388432813        3.93337155153543
C            7.60335609846530       -1.71977055864767        3.78100864687783
C            6.49551811342637       -1.63666388221323        2.98253032863225
C            6.00710272679006       -2.76354885358709        2.29933490235412
C            4.84152051579160       -2.71198383401948        1.44870250646651
N            4.13815296188307       -1.56322880695354        1.26325001435527
H            0.61958078256824        1.05251980617250       -0.37759506838484
H            0.51935234573349       -0.73250214607186       -0.76326419757983
H            2.77555534558983        0.67879242022576        0.72027196964737
H            1.68981170423665       -2.71254734045973       -0.91331617818311
H            2.98447315778341       -4.76540054132065       -0.54241404762994
H            4.78923304634854       -5.97594813152671        0.46490348188717
H            6.75035737903615       -6.07615679586492        1.90039738026869
H            8.34242372991110       -4.98428771182021        3.39925961208692
H            9.14441918294840       -2.98585249094667        4.56493244425630
H            7.96229810622147       -0.84347139317158        4.29597021579394
H            5.99595369956732       -0.69085144472453        2.87902221589282
H            4.43155956130096       -0.71862433449308        1.73671681361073
