28
 energy: -4.359894606153 gnorm: 0.000819608301 xtb: 6.6.1 (8d0f1dd)
C            4.15588127883440       -0.30822720528942        3.20354409596580
C            2.90031887282810       -0.26745969326114        3.09902535959847
C            1.89460119565609       -0.01308885453606        4.13714320962843
O            1.06837421988634        1.13343183759839        4.08080218010649
O            7.77871109772068       -1.13095675161089        1.38997603896599
C            7.72048895210997       -0.12309155138719        2.24298406206023
C            7.10223061257259        1.11962800143256        2.15607838126781
C            7.13649189012913        2.04914051821561        3.14367029577513
C            7.79356024005591        1.86048831002127        4.34505680745657
C            7.89550258886911        2.74343224721065        5.37761606846038
C            8.57653984094819        2.50074518504059        6.54413261559551
C            9.24459560173828        1.35328822470075        6.85533264803868
C            9.38200503072538        0.26962095937304        6.15304752042029
C            0.07825806702667       -0.26980867771207        6.86093220547025
O            0.98337213895335       -1.05187306403713        6.40921185769486
O            1.79523097147256       -0.93265427587323        5.20568826515214
C            4.72887766508322       -0.09970027154253        4.35568167411138
C            6.64512204379980        2.26474574770476        9.31203950699817
H           -1.30516075304196        0.07766942470590       -4.48273544035524
H            1.12533683490959        1.80720722300181        3.34114889642819
H            7.35929426550033       -1.13731599131666        0.47882464563708
H            6.56553883390365        1.34220276509157        1.24844261571363
H            6.62979005099493        2.98845811792485        2.99457209682229
H            7.40842236496015        3.69764363209669        5.25851595645154
H            8.59587916178807        3.28120709268804        7.28839138604937
H            2.45171132787788       -3.01309910331895        8.03234441185251
H            9.92319152832028       -0.56574862159955        6.48885015231607
H            2.47393407173393       -1.72085522216018        5.05960248463427
