40
 energy: -7.567843593023 gnorm: 0.000762644334 xtb: 6.6.1 (8d0f1dd)
C            1.60605852720719        0.44051897209182        0.70573553081118
C            2.70058610025978        0.45436242355746        0.18690735704244
C            3.98228693571762        0.44403949727121       -0.41019031189854
N            4.48538162486742       -0.91119633408369       -0.68379560292463
C            5.68253572733150       -1.44180850865424       -0.36169600590583
C            6.54649737987298       -0.90285742698155        0.65646807517693
C            6.28891665339994       -0.23482355013864        1.87558553987388
C            4.97484503859180        0.00853255314141        2.51943356276440
C            7.52638622535554        0.02187914300646        2.48125738651999
C            8.54050839673485       -0.50819212246152        1.68364870127385
C            9.98961400210601       -0.55576987216777        1.94473942197491
N            7.92215130886585       -1.07946979242050        0.62863570754568
B            8.66044685386966       -1.94057063802022       -0.39714374530862
F            9.37983412466839       -1.12000254087680       -1.25959748905173
F            9.49250456979251       -2.83302695641256        0.27378935176045
N            7.62473612541465       -2.73292130295486       -1.19617528826064
C            7.95002828693840       -3.71686376147949       -2.06145429261611
C            9.31557962440574       -4.18893678577110       -2.34929442657015
C            6.74804069493519       -4.14836570265537       -2.62164095089864
C            5.69536390645597       -3.40261646228196       -2.07405554878851
C            4.26177662685640       -3.58083233738479       -2.40604583447001
C            6.26080262061850       -2.48597040424712       -1.16288573418640
H            0.64062816604039        0.42105629236591        1.15790509124942
H            4.71100752838115        0.97055541449487        0.21286833215120
H            3.95887489049551        1.00771152801663       -1.35130671277026
H            3.94928706484927       -1.32192015863047       -1.44391664704567
H            4.19349168931990       -0.58905657455155        2.04991221005085
H            4.69330407485963        1.06014126356799        2.46026581163493
H            5.00703201178247       -0.26709371810989        3.57399248784631
H            7.66888738641069        0.49716301110129        3.43659729129990
H           10.29941079505465        0.24387749241525        2.61777963344771
H           10.54151008524518       -0.45505938703810        1.00941595438238
H           10.26536743708513       -1.51227223014103        2.38926364884940
H           10.03369815185625       -3.66339903934107       -1.71852222096323
H            9.58043363056671       -4.00333376400969       -3.39028653754475
H            9.40889534752860       -5.25714502160927       -2.15313659862038
H            6.64757382961432       -4.92954260359194       -3.35546852037118
H            4.08634150321225       -4.56096993770355       -2.85066470767981
H            3.92914392126007       -2.82869028161317       -3.12196775443303
H            3.64097113211875       -3.51072037567721       -1.51231616540455
