48
 energy: -8.121668408981 gnorm: 0.000666605448 xtb: 6.6.1 (8d0f1dd)
C            2.09978687952995        0.61431952519321       -0.12431087297861
C            3.33401169499462        0.47203552460806        0.30925535916235
C            3.66687803472274        0.32829364415392        1.76629281420327
N            2.82304203954152        1.12064647004779        2.61803714586358
N            2.91150071116635        0.90472697186832        3.83843041314991
C            4.03652768540398        0.14663623316991        4.31715052366820
C            4.08576203988760        0.08812453530792        5.81579945102305
C            5.00800367406212       -0.57070670834939        6.48630235699332
C            4.03684283828050       -1.29462870864287        3.63900796311444
C            3.70594643689146       -2.80180361148008        4.06736208023226
C            4.78463997676372       -3.64857094265370        3.29374358107499
C            4.42230258301812       -3.39873558185277        1.78660357269218
C            3.06350920069327       -2.62068976175354        1.82481128003146
C            2.44243179393564       -3.16465949614981        3.18818771008676
C            3.27392831213405       -1.11769856670223        2.31412808071090
C            5.31813148054459        0.80919888723077        3.67482982888559
C            5.69710232160377        2.31165647512873        3.95795254398040
C            4.51061818065241        3.26407510933290        3.60143653178490
C            4.44733538413702        3.22754794494535        2.04143647254627
C            5.56739463277854        2.20983144103701        1.64383224958256
C            6.65861897789607        2.56176441410885        2.72888859319177
C            5.15054636731824        0.74996145430628        2.09157861503417
H            1.86797265292458        0.69907758573097       -1.16838227084961
H            1.28042172762609        0.65730708122654        0.56541665095979
H            4.15058907825038        0.41243260646986       -0.38973734904780
H            3.31430276757753        0.62439674823792        6.34122285118486
H            5.78062396982720       -1.11267479856802        5.97815634846662
H            5.01885340030547       -0.59683841482550        7.55875537294691
H            5.09575073759857       -1.39400422320130        3.35110938391218
H            3.61471173783042       -2.97874732552223        5.14914467051723
H            4.70150773937721       -4.70850348579238        3.55761088317039
H            5.80606474281798       -3.33795004184704        3.53929095530579
H            4.33045440346902       -4.33673890157257        1.22825323465674
H            5.18506643677825       -2.79543078897082        1.28340227531354
H            2.42666345752620       -2.73411024578261        0.93487483765340
H            2.24617145321220       -4.24058652850387        3.15873644286193
H            1.53663889089608       -2.63796963420021        3.50354901762564
H            2.23632276202819       -0.87648215156536        2.62455395151294
H            6.18592330786072        0.20381976172308        3.97310473670404
H            6.15272843413224        2.49008184146567        4.94416353249548
H            4.68967956292886        4.27733278786340        3.97847021080732
H            3.58031969732784        2.91107522565346        4.05611666734529
H            4.64612756896659        4.21342521196397        1.60605229338999
H            3.46787822692073        2.90883249153708        1.67239421392262
H            5.91405299219337        2.28875562853940        0.60211247638594
H            7.00546262639182        3.59785411093936        2.66369415801361
H            7.51448871643142        1.87971557709220        2.70898826408504
H            5.83309166284507        0.01350462905396        1.64864989662623
