58
 energy: -10.799107794625 gnorm: 0.000902045921 xtb: 6.6.1 (8d0f1dd)
C            0.73243281051901       -1.70991023249653        0.11618947204533
C            2.00853620919706       -1.41118776721540        0.25340955265371
C            2.79051977417025       -1.54794676961690        1.53132180670779
C            2.51736152718254       -2.86754819627275        2.30683799949803
N            2.18198000683177       -2.57357779152796        3.72543104518093
C            3.29788783954819       -1.84332303640346        4.40388100968383
C            3.57298953595246       -0.50530292629145        3.69083077292092
C            2.57283789778784       -0.35258551783483        2.51784343492129
C            1.14067546776449       -0.40574234431075        3.10428562208139
C            0.90272515196460       -1.78859497398112        3.75744635445022
C            0.26239781321432       -1.74535090898056        5.16980466072680
O           -1.15734431129184       -1.51457902799887        5.09590983940169
C           -1.54586673052874       -0.17830619335108        4.79909784220833
C           -3.02615807796959        0.01862541139692        4.90985078773911
C           -3.57293511473140        1.29031932559226        4.96798210802705
C           -4.93975178424086        1.46109585128796        5.05088382212241
C           -5.77409240082730        0.36244742113336        5.07214461480464
C           -5.24000872591530       -0.90765356425856        5.00884872200661
C           -3.87323260333738       -1.07518601939651        4.92589882304828
C            0.52121416697870       -3.02407470170098        5.93207727782026
C            1.40498045308911       -3.07040608140236        6.96734298687391
C            1.68483240003441       -4.28236135333814        7.59089911031166
N            1.17222455001207       -5.43529787498129        7.25971106424970
C            0.27339014540351       -5.42299621227822        6.24319656605558
C           -0.32362533830901       -6.63916654980785        5.84128699864493
C           -1.24637347626378       -6.68425629524893        4.84468310010736
C           -1.65713809733643       -5.50389947811565        4.18328136637128
O           -2.60708344784726       -5.52157897485055        3.18226480652641
C           -1.08471985914749       -4.30840922614390        4.56094520619790
C           -0.10365798279216       -4.23782451682494        5.56396535801233
H            0.21745244602829       -1.57219559940739       -0.81485560682637
H            0.15416282373605       -2.10446958138239        0.92608593799270
H            2.53092769289132       -0.99370612035248       -0.59285777273983
H            3.86114678785881       -1.54428572562335        1.26563393115039
H            3.38252485978422       -3.53740344607199        2.28520999692182
H            1.69471065817137       -3.42657874378946        1.85523260456918
H            4.18051706336111       -2.49065992331771        4.40274295425931
H            3.03349696835106       -1.68912187569695        5.45252349684402
H            4.60358230727615       -0.46593202686604        3.31877286582702
H            3.46961472881069        0.33532666741500        4.38716177883358
H            2.73224467921392        0.59822282423065        1.98315893917421
H            0.39830479471129       -0.19316723390545        2.32774132346982
H            1.02913244355919        0.37763050383501        3.86026676748966
H            0.20440511462356       -2.35914605648908        3.13167351907404
H            0.69622926226570       -0.91219603883759        5.73732871403871
H           -1.22646739882885        0.05708098015458        3.78162025763321
H           -1.02383220350243        0.49466378737159        5.48616494387098
H           -2.91898496958425        2.14529058604892        4.94703260440111
H           -5.35598232176049        2.45409747902581        5.09856968429991
H           -6.84158762079054        0.49609131447195        5.13749369151400
H           -5.88826299582315       -1.76847728254633        5.02410299310956
H           -3.44406395358311       -2.06131577758284        4.87902003726447
H            1.88331614560722       -2.16753378405839        7.30565618253342
H            2.39166922105223       -4.29495750440090        8.40613612743718
H           -0.02599026349785       -7.53864921428121        6.35110900441293
H           -1.68775123050964       -7.62103410125422        4.55435582198370
H           -2.91491283334099       -6.44304567073506        3.03414902773724
H           -1.43765000519824       -3.40821991074022        4.09660804232634
