52
 energy: -10.110966737761 gnorm: 0.000903331162 xtb: 6.6.1 (8d0f1dd)
C            1.95845959201994       -0.67323992949119       -0.30391405385951
C            3.11258334349631       -0.09927325275943       -0.03657145990483
C            3.75313569736082       -0.16039305621211        1.30292922028688
N            4.96791615289922        0.61253066324671        1.39072569770440
S            5.54589061387644        0.41038357079828        2.99813987421472
O            5.16173729835433        1.66455668724112        3.72411028087776
O            5.23068313297429       -0.97266454138106        3.49381181014205
C            7.30142433710287        0.46291403202994        2.63883766022285
C            8.05706653122097       -0.68228805995403        2.81128274056071
C            9.40956336457549       -0.67624846038953        2.54223234948935
C            9.99692751370930        0.49199224670450        2.09336920318296
C            9.23535577441733        1.64560310882720        1.91775031950470
C            7.87533719960104        1.62977122927387        2.19942651182833
C            9.99993971907019        2.80455323368255        1.41728353113123
O            9.50838690147724        3.89443979051740        1.18874532552752
C           11.40007403524551        2.46570403251486        1.23100973647729
C           12.36305976494917        3.29722099273703        0.78216214317731
S           12.08767886583583        4.95938616279916        0.32977578920109
C           13.75652191590950        5.26011712720793       -0.11797267001060
C           14.33317830646224        6.41844503169889       -0.60441083611895
C           15.68157509052114        6.42305024520730       -0.89287065991738
C           16.44316639340187        5.28582596424275       -0.69771585209507
S           18.19345696210810        5.33006574264270       -1.07902195038852
O           18.71400710424566        3.92455958948437       -1.07481669206066
O           18.39492071146310        6.30568932738589       -2.20306640658137
N           18.72948152347638        6.03548777383116        0.39516048333639
C           19.90347466129132        6.80389606522740        0.05962302555255
C           20.49539683741732        7.51698036067994        1.22118366231686
C           21.56972375564744        8.27137999145355        1.12328885824537
C           15.88099460951792        4.12866801654233       -0.21910617011895
C           14.52366988317626        4.11323084566244        0.07664911133156
C           13.76448807735761        2.96092239685553        0.60030620527127
O           14.25925561051678        1.87648197551226        0.84637553508996
S           11.67178155362889        0.79974256972612        1.67233720712739
H            1.51458970117194       -0.62252462260912       -1.27864097803505
H            1.42202665249672       -1.21316099177828        0.45033033133774
H            3.64321086587727        0.43221985964175       -0.80885263049375
H            4.00533819695869       -1.20252413755200        1.54823232417732
H            3.04829788022566        0.17509123806876        2.07924693944038
H            4.76437531335341        1.59906754397817        1.28323810615434
H            7.56949340418101       -1.57670527172264        3.16425073168233
H           10.00984140390137       -1.55985103325474        2.67416271328787
H            7.29326350975405        2.52790716925467        2.08006604585450
H           13.72631078572677        7.29450338722324       -0.75476822396031
H           16.15659324113712        7.30762450881883       -1.28479836522705
H           18.97277857636963        5.26976910896223        1.01142000175889
H           19.61177871870049        7.53107180708784       -0.71264199560020
H           20.65236561708977        6.14481896164158       -0.40643155928129
H           19.99900437266549        7.40348412850329        2.17043663026566
H           22.07111377418773        8.39857552698974        0.18476675496526
H           21.98225611890838        8.78190940185275        1.97117262023064
H           16.47452903296475        3.23963194135327       -0.08273897732854
