45
 energy: -8.981699363114 gnorm: 0.000414654971 xtb: 6.6.1 (8d0f1dd)
C            1.05580418411616        0.41849759546279       -0.24389643730262
C            2.34616124378727        0.17358384369503       -0.13483334780908
C            3.11396986991009       -0.57092870816047       -1.16530288469056
N            4.41676762122223       -1.04237077940523       -0.70060468512219
C            5.31705873411494       -1.79086596533573       -1.45813245634715
C            6.45854075386201       -2.34193756336817       -0.84224242345445
C            7.34894748216948       -3.08911939232219       -1.55562075335431
C            7.15732436382313       -3.33183625850683       -2.92373241636105
C            6.01960809493707       -2.78250651109673       -3.56261893511554
C            5.82208785420194       -3.02561929008228       -4.94428024077857
C            6.70381303347843       -3.77882487136813       -5.65159946641941
C            7.84618469983224       -4.34662884615716       -5.04858159500850
O            8.68899702732328       -5.09912299905025       -5.81323281357323
C            9.77931723945163       -5.61624800647580       -5.16570116645049
C           10.69133460734820       -6.39664437917846       -5.86950747706475
C           11.81787374099266       -6.94383176396429       -5.26581948615526
N           12.72328826718115       -7.72078173036827       -5.99824403088889
C           12.58367640467523       -7.90537067806773       -7.44228820748244
C           13.85748928898782       -8.38575283451541       -5.35858142192335
C           12.02057566756951       -6.68836962453166       -3.89575901838408
C           11.14065625920903       -5.92894224226741       -3.18292245211207
C            9.99760154357475       -5.36951891732021       -3.78296166382167
N            9.15836240352379       -4.62963871445186       -3.04027408968577
C            8.09243803829350       -4.12668310555219       -3.67117399416600
C            5.11796293170663       -2.01752005095261       -2.80983301668342
H            0.51695695351960        0.96964800597523        0.50224400207696
H            0.49746029398997        0.07096320317821       -1.09038176341878
H            2.89101863274004        0.54973549544304        0.71530237896657
H            3.26875074305655        0.06796712428957       -2.04100971513651
H            2.53681605896946       -1.43694138165061       -1.50669232869436
H            4.51820898884309       -1.00935621847571        0.31208587180619
H            6.61651281483991       -2.16416185789501        0.20700671792070
H            8.21712658898671       -3.50961986889346       -1.07910065635100
H            4.95784416036922       -2.60416326163647       -5.42765404815724
H            6.54864825577192       -3.96277191448574       -6.69978495027191
H           10.49570691797106       -6.57664031190792       -6.90863764689326
H           12.46967165137637       -6.94076138068564       -7.93343471437648
H           11.71211565268455       -8.52112748741639       -7.65660976040047
H           13.46155513597245       -8.39246995919015       -7.86189584728093
H           13.51512534107410       -8.97515958541801       -4.51007099099517
H           14.57706181032486       -7.64568683434323       -5.01332212622127
H           14.36031965260008       -9.05709565971640       -6.05176969212901
H           12.88927111581293       -7.09345089358113       -3.40879066619100
H           11.30562199096818       -5.73883016116304       -2.13682577555282
H            4.25445588483749       -1.60343525908547       -3.29527380854541
