37
 energy: -7.800590214934 gnorm: 0.000642570546 xtb: 6.6.1 (8d0f1dd)
C            1.16747059094077       -0.07892537029658       -0.09705261583389
C            2.48288117127510       -0.05769174505838       -0.02330095220847
C            3.26871580093190       -1.09188306880723        0.69606842266720
N            4.59433778370579       -0.63441351630110        1.10523612091913
C            5.55900461982899       -1.40768490324565        1.73769930812619
C            5.39015918277394       -2.79307117997896        1.94484585323369
C            6.34708713383757       -3.52832723580625        2.57694768433979
C            7.53342763357790       -2.92570146980141        3.04323331720816
C            8.54471295334525       -3.66122491591422        3.70684420750552
C            9.67234756910483       -3.05059028106112        4.14878673587940
C            9.88709713144827       -1.66188152667343        3.96866117195939
O           11.03742928083297       -1.10749464057986        4.43909704110366
C           11.17382641306553        0.23969732687631        4.23552947904357
C           12.31140461836599        0.88384117988978        4.68209224863249
C           12.50739439859589        2.27330007029132        4.50295025362313
O           13.53355676881736        2.84011301382890        4.90768009878179
C           11.47027572928108        3.00534690457511        3.83235082365233
C           10.35502203397326        2.38614442924234        3.39061833013197
C           10.15645551711262        0.99001552376009        3.56806456818991
N            9.04075798112428        0.43337044715051        3.10979082548834
C            8.90978182077169       -0.88643682383087        3.31139271821663
C            7.71507727324579       -1.53810937681994        2.84225489298930
C            6.72342606600292       -0.80967398428768        2.19121412253956
H            0.61802854715458        0.66981123368863       -0.63347277065062
H            0.59927608502010       -0.85085178478087        0.38258842923970
H            3.03354728524447        0.71701867658835       -0.53095634726972
H            3.38493567946285       -1.97553116027029        0.06044552486116
H            2.72904561820813       -1.41776962457512        1.59143491497165
H            4.69763133131475        0.37796546984503        1.06950521546573
H            4.48901875954705       -3.26645743157328        1.59878589812594
H            6.20605360645219       -4.58414619424656        2.73015379643048
H            8.40481286178129       -4.71740963217003        3.85802525278374
H           10.43840067300930       -3.61186658038980        4.65354700203413
H           13.07280199770390        0.31656890280236        5.18129589142945
H           11.61294822585172        4.06192651833931        3.69448771416127
H            9.58360012811506        2.94304399903313        2.88826833938814
H            6.87035972917454        0.24349875055740        2.04545648283967
