45
 energy: -8.985090722741 gnorm: 0.000522108901 xtb: 6.6.1 (8d0f1dd)
C            1.18237487504588       -0.40635113611535       -0.12725142254455
C            2.44191209250352       -0.04021952668689       -0.00039147340203
C            3.22342680871336       -0.27101701303688        1.24101956544638
N            4.51103633394739        0.41980754795487        1.26412738987584
C            5.44858333822764        0.34573909741017        2.28636600530297
C            5.27906229166862       -0.51274255078455        3.39243053037282
C            6.21213522843362       -0.57110196299782        4.38383787833344
C            7.37503660341419        0.22639071953043        4.33233890028804
C            8.35912572885861        0.18877382455828        5.34314642473470
C            9.46983455277682        0.97226614239054        5.26583308546381
C            9.68740185742416        1.84858234862932        4.18298763902848
O           10.81925874313163        2.61046074734902        4.16555460796511
C           10.96494533024335        3.43537132814251        3.08135292256875
C           12.08917484757127        4.24879183061379        2.98363070284706
C           12.29289400338813        5.10287814498472        1.90542476797199
N           13.43392503087998        5.91053828179749        1.83154887810544
C           14.41466562650752        5.95203778468564        2.91562987822725
C           13.70114216819090        6.75700096148837        0.66926991129482
C           11.31564552070192        5.12873635731308        0.89222476375797
C           10.20358812990532        4.34264872060059        0.96556471922152
C            9.98643580989739        3.47548823710183        2.05129879294136
N            8.87301745130760        2.72293592164309        2.08281075978471
C            8.73181455199719        1.92137795475611        3.14070360065240
C            7.55735649620165        1.09319700879786        3.22703496610070
C            6.58876078992073        1.13268855432381        2.22854995376211
H            0.63197756554277       -0.24442423305659       -1.03369387815388
H            0.66242080543686       -0.88308042765819        0.68000805385205
H            2.94963509097505        0.42211962330099       -0.83087495949457
H            3.40416436102367       -1.34361538182530        1.36622135944476
H            2.64361427203786        0.05333923275367        2.11178182888711
H            4.60941468955224        1.12094580931928        0.53216277324580
H            4.39702078596818       -1.12533426484144        3.44691920543230
H            6.07147897953366       -1.23035141542063        5.22290656404593
H            8.21853629648729       -0.47145518901958        6.18136920106255
H           10.21611249211418        0.94002303201225        6.03952449071983
H           12.81295319346567        4.19491680006726        3.77342889498637
H           13.92222426228070        6.19702740449652        3.85482311463369
H           15.17645942744664        6.70602491244761        2.72893910753089
H           14.90533711170848        4.98535260178795        3.01132938078443
H           13.66763977509723        6.16192949260074       -0.24164340728973
H           14.68593026520087        7.21548344181725        0.73450067598924
H           12.95720915888600        7.54910177989191        0.60614687544968
H           11.44688735814664        5.78591130789797        0.05143034645788
H            9.46167446964172        4.37210024107089        0.18684197134297
H            6.73634542859739        1.79054590790710        1.39335465297152
