68
 energy: -13.263148957899 gnorm: 0.000562035645 xtb: 6.6.1 (8d0f1dd)
C            0.97362678699475       -0.12457273707097       -0.29927805103562
C            2.28799145804603       -0.20265282159566       -0.29447310520691
C            3.16726247169725        0.99216553120595       -0.33701741613413
O            4.53660505889439        0.66454569875992       -0.30271267896857
C            5.29540737129883        1.80981849646264       -0.34624185692832
O            4.79194358594239        2.92598424447560       -0.40698482766926
C            6.73447021872437        1.63028043249905       -0.31623977882682
C            7.24093265831471        0.34782944211817       -0.25121465684110
N            7.73495216331895       -0.70735527222205       -0.19960160826016
C            7.64649083606494        2.70928529541591       -0.35054069015896
C            7.24322264733727        4.04984351269620       -0.41773399577827
C            8.16715489320803        5.06450380800889       -0.44869972754308
C            7.72708590429427        6.43119664799568       -0.52305557136147
C            8.60051319191456        7.44856629531488       -0.58381803896356
C            8.26431235797833        8.85193712272305       -0.66700777776602
C            9.28517631552572        9.80379439910024       -0.76579954989602
C            9.00112221468710       11.14214178703335       -0.85122734534607
C            7.67935462359058       11.60304641006270       -0.84063766282304
N            7.38720324951476       12.97275497804552       -0.93292083681783
C            8.43815201236562       13.96722929727154       -1.14537646006195
C            6.01424592489167       13.47048126720817       -0.85645396078452
C            6.65873183591316       10.65043563476793       -0.73852195421715
C            6.94240846375950        9.31165598148314       -0.65448727641955
O            9.51897297943940        4.81534995388600       -0.41241340758336
C            9.93414651355386        3.50263830590081       -0.34852107762201
C           11.35831397587284        3.27176339113207       -0.31245483186216
C           11.95773489903301        2.06767975244904       -0.36674473411311
C           13.38514299148215        1.84173948244073       -0.32196242416647
C           13.88510642313219        0.54767471326834       -0.50651755621694
C           15.23199888426107        0.29529079226675       -0.47172678420547
C           16.15420152351325        1.32325040339723       -0.24408912332791
N           17.53382509775107        1.06571483254006       -0.20805488179623
C           18.07787553970375       -0.24629525634135       -0.55631191019768
C           18.49748803940699        2.09776318877798        0.17247142629730
C           15.65372384377494        2.61652370306816       -0.05360170782741
C           14.30662666972887        2.87008421496769       -0.09282200165454
C            9.02984181949015        2.46876030333936       -0.31732268537262
H            0.35341380574606       -0.99888337721664       -0.26831719555852
H            0.47844103522408        0.82523115953545       -0.33428274145942
H            2.77768477554522       -1.16167727596155       -0.25934651689055
H            2.96982223212259        1.65400810608667        0.51590613556098
H            2.99440452108018        1.57295261493626       -1.25207681065069
H            6.19562819417549        4.28166173395099       -0.44662605627720
H            6.67027391308796        6.62033770728480       -0.53634345827901
H            9.64609424506484        7.19479807942375       -0.57540658576970
H           10.30857424224444        9.46993163803438       -0.77582566068907
H            9.80565394288822       11.85187157637476       -0.92220786688750
H            9.09533138822143       14.00607186873139       -0.27887563335481
H            8.01606541672125       14.95796255995091       -1.29973016527570
H            9.02307970692022       13.70954692628338       -2.02609146223170
H            5.53102035347778       13.09735283079380        0.04409312323277
H            5.44999839292386       13.14204192671009       -1.72691009338062
H            5.99217607981717       14.55757032529401       -0.82277990156909
H            5.63398724362818       10.97609733827996       -0.73320265180768
H            6.13573080308765        8.60536274753972       -0.57630156399870
H           11.96275213337524        4.15695645967949       -0.25659372007354
H           11.34465145700500        1.19096893998201       -0.46657137074292
H           13.19226496842764       -0.25776396042651       -0.68013045802504
H           15.58761798024206       -0.70971788935449       -0.61153300838966
H           17.80415234924561       -0.97719618087709        0.20215309237855
H           19.16306549714790       -0.21371109492942       -0.62733910847482
H           17.68776763000367       -0.56819719260674       -1.52000449838866
H           18.19235591663413        2.56851996495213        1.10489046371709
H           18.56017136564338        2.85515437676805       -0.60649461609666
H           19.48779331261424        1.67241406013229        0.32089095378810
H           16.34087186082220        3.42567529141007        0.11727663581148
H           13.95504367620542        3.87360773496760        0.06422922552699
H            9.36914611629549        1.45269777136284       -0.25538195829264
