72
 energy: -14.256569701490 gnorm: 0.000659961231 xtb: 6.6.1 (8d0f1dd)
C            2.22730959294878       -3.26940650320861        1.61678930927089
C            2.41898648150785       -2.57300824243714        0.64469160184249
C            2.68551582766103       -1.75244476228449       -0.47574117528415
N            3.89552682723605       -2.14177094309897       -1.21443160560698
C            5.17605023640241       -1.84821741881242       -0.96764023283092
C            5.63213687392516       -1.14349049198589        0.20249458313329
C            4.99089262943318       -0.79850218778038        1.36371799395767
C            5.92019874190382       -0.12446582209951        2.21571265405723
C            5.61650731556669        0.34675946405830        3.51677628951502
C            4.38606794593800        0.12930178653255        4.19467532863398
C            4.47551058095479        0.71735126181033        5.44191583430521
N            5.75872397812921        1.30575907416888        5.49740249117742
C            6.45495493312966        1.10300251887944        4.39757365610584
B            6.25059129207872        2.11296423009362        6.70033132914310
F            6.49293608281240        3.42213172249311        6.29615976280511
F            7.39150320832588        1.50464849432499        7.21453596756216
N            5.16130141345990        2.11730050046729        7.77673483513340
C            5.28132173666719        2.70781875537639        8.95908988943770
C            4.08547061331083        2.44974918672200        9.66542934102025
C            3.25875230526211        1.69157092992291        8.87172219828149
C            3.92940011267859        1.46581616398023        7.63910179145043
C            3.54102214190295        0.75458223944233        6.50587048191365
C            2.24699546342236        0.03611944946590        6.42495773211561
C            1.04335914426384        0.74668951725976        6.26162615533185
C            1.04361766915905        2.23280973809746        6.17103052634893
C           -0.14994291933770        0.05195736139816        6.20031896222085
C           -0.19116558109880       -1.33167490143786        6.27215863194775
C           -1.48205641488393       -2.06947532612414        6.20049020141900
C            0.99982375214512       -2.02348083293231        6.41728607762971
C            2.21360291770073       -1.36903505500429        6.50447526480338
C            3.46956574559851       -2.15420782604535        6.65990261148019
C            7.17251961156742       -0.08448597765981        1.52194776726492
C            8.47178729263246        0.45202549331800        1.96037910696946
N            6.96410831633049       -0.70144271109521        0.36438526153261
B            8.08635937769274       -0.99048405538355       -0.63229705696563
F            8.57535882066004        0.21017703562315       -1.13582343051017
F            9.08736742268514       -1.71494782406055        0.00768047274809
N            7.52276359579101       -1.82774585644546       -1.78010181349796
C            8.27628342189436       -2.27086784616937       -2.80582941414456
C            9.72408062450434       -2.04554869847652       -2.95966513454074
C            7.40419130665880       -2.96098648881046       -3.65507414995843
C            6.12488553633999       -2.91443410063679       -3.10926343684663
C            6.19473304928141       -2.19642228804341       -1.90791783234647
H            2.06681948075969       -3.87617676618000        2.47869829183271
H            2.79679519913632       -0.70569538375591       -0.17181119549091
H            1.82199782454316       -1.76291444075926       -1.15273603557454
H            3.66122099284007       -2.68569464085164       -2.04383669184130
H            3.97762214363445       -1.03446270951775        1.62544639424132
H            3.53857500748439       -0.41552727163260        3.81952954508320
H            7.44672992145760        1.48125479919506        4.22761347873961
H            6.14620629160175        3.26179872737446        9.28506302993643
H            3.86279305238441        2.78922601546292       10.66428434601169
H            2.28040104168494        1.32295914908804        9.12921545899448
H            1.95973145974596        2.59815213920449        5.70589028243577
H            0.96738767879296        2.68218135369052        7.16134626527951
H            0.20557183687786        2.59127231360598        5.57267067889833
H           -1.06896802670436        0.59911172322410        6.08901541534799
H           -2.32323050464743       -1.38885275217346        6.06635188363626
H           -1.65506240270489       -2.63702919691791        7.11545935891682
H           -1.48297415139305       -2.76959649702760        5.36444476233328
H            0.97691321611431       -3.09747115507475        6.46964770115257
H            3.28907710516564       -3.08377401694672        7.20036358368998
H            4.22002546525239       -1.59129739273791        7.21577486727409
H            3.89217082925758       -2.40660712438774        5.68704578409343
H            8.79266377791828       -0.01245152299231        2.89293739957092
H            9.23183718629388        0.24706270422752        1.20494061851919
H            8.42255683306393        1.53181475571377        2.10084693118357
H           10.10259965319174       -1.46671959495878       -2.11587782301379
H            9.93797699017749       -1.49223995200886       -3.87409688015559
H           10.26465363643841       -2.99156479198227       -2.99179073602637
H            7.68443146243198       -3.44087844190601       -4.57814937788149
H            5.23851797430197       -3.35649879265360       -3.53147616555213
