58
 energy: -10.880135124629 gnorm: 0.000657536680 xtb: 6.6.1 (8d0f1dd)
C            1.53265425629726        0.78767388051737       -0.27024529810247
C            2.58740434969457        1.06987719989184        0.46589009700905
C            3.40239750303048        0.02958582887986        1.13986678837353
O            4.43733944024755        0.58740697475564        1.94524243430098
C            5.22810740103072       -0.34416461568125        2.62054200101469
C            6.22993123378976        0.15522554261714        3.45922359493092
C            7.05356922317333       -0.68755593899072        4.16031220648558
C            6.91080217509878       -2.06569818176896        4.05025292226613
C            7.79179185363066       -2.95901399173249        4.79394280240055
N            7.72842692632754       -4.27629296874973        4.70796367018693
C            8.69427088279924       -4.73724405554212        5.53362481592814
C            9.08284799306922       -6.04959816422419        5.83047412948286
C           10.10068750152448       -6.26854525098860        6.72332636264941
C           10.52351059915014       -7.68132025308897        7.02741558115321
N           11.23391506153482       -8.27051700209285        5.90848917478500
C           10.55926933567913       -8.69343520775483        4.77700924375633
O            9.34060066141392       -8.73700855700841        4.77622880250580
O           11.34877614231035       -9.01549593339531        3.70677455796512
C           10.61121637966637       -9.38192022865769        2.51315809308401
C            9.75949277463714      -10.62647565309528        2.78752575847260
C            9.73470894559994       -8.20620435699685        2.06430051552126
C           11.64252499959892       -9.69662301685487        1.42179194572847
C           11.36483866457715       -7.78257268049933        8.28054298031043
O           12.48894104507433       -7.33464157470122        8.27291657193202
O           10.76733796627375       -8.36712892507079        9.35455943876011
C           11.65794466236924       -8.39341043380106       10.42160990243721
C           10.77037530072366       -5.17156469094179        7.30001874248994
C           10.41763696628856       -3.88034028657331        7.02657180591605
C            9.36360340412572       -3.64062236577222        6.13581530070707
O            8.77204154845176       -2.50690149639155        5.65178687365110
C            5.91775834729448       -2.57321405910873        3.21893347942215
C            5.09070506041589       -1.73273693571683        2.51747416746657
H            0.95637422841484        1.55316403032276       -0.75170319772410
H            1.21345530287257       -0.22555516109535       -0.41062384161228
H            2.89968654171795        2.09217160770275        0.59865231891887
H            3.86825385529427       -0.62229443415427        0.39287906330178
H            2.76609051413890       -0.58444280078705        1.78667538760235
H            6.33789950380002        1.22208755033299        3.54098364871292
H            7.82274604134532       -0.29812720702764        4.80501813227591
H            8.61205560111413       -6.87205875518428        5.32438633768284
H            9.62316946807821       -8.29377018382986        7.17890707905952
H           12.23408389888196       -8.08489341764749        5.88472665012502
H            9.03784420288185      -10.42195193500674        3.57646457621864
H           10.38925936112927      -11.44996628044350        3.11838147435671
H            9.21747261807975      -10.93861234574992        1.89640658318082
H            8.99356437217000       -7.97479045066350        2.82700143566976
H            9.21331369277952       -8.43359669885431        1.13599866175115
H           10.34394945551478       -7.31740255223810        1.91209281213300
H           12.28475885498631      -10.51740538917652        1.73540073954560
H           12.27579992150944       -8.82999157183285        1.24159555177916
H           11.15782938439252       -9.97275338084364        0.48663627771204
H           11.18365488339323       -8.88782661374379       11.27252540790762
H           11.92769414586294       -7.36761928573123       10.68545887855820
H           12.55447424963922       -8.94161742179327       10.12022455592640
H           11.59632365006855       -5.37392505051558        7.95943067500638
H           10.93288870498225       -3.04735578459162        7.46986657651799
H            5.81131968397446       -3.64110822202153        3.13787895025366
H            4.33137925806447       -2.14977084690149        1.88203580213015
