41
 energy: -5.126836473588 gnorm: 0.000923578284 xtb: 6.6.1 (8d0f1dd)
C            1.02599489447022       -0.55182865903096        0.53416245037053
C            2.25174609057893       -0.08781843897540        0.41881784318874
C            3.24490347499943       -0.08725869298108        1.52455939835357
O            4.46618587670724        0.49924397840320        1.11712151651501
C            5.43098759894182        0.50496444089655        2.11182074725892
N            5.13971703385339       -0.02513587890715        3.28702915389936
N            6.04276960783513       -0.00979051299228        4.18364966328647
C            7.20716807794210        0.53687588115350        3.87951022736519
O            8.20082663642622        0.56386815926070        4.84430798911723
C            7.80750521423507       -0.03752083760326        6.05942001319521
C            8.90578185060118        0.05573612073700        7.09749397180710
C            8.45606116813262       -0.59848865068166        8.40130933109892
F            7.36339501466378        0.03498083424268        8.84663945637969
F            8.18365728678801       -1.88871795072882        8.16850061671045
C            9.58006273548536       -0.49205369997211        9.46053109773079
F           10.67762728127617       -1.06390062609780        8.95746614630581
F            9.79855056290125        0.80276049759673        9.70488598884704
C            9.18048432182090       -1.21015833672630       10.77217538266022
F            8.02223063069381       -0.70666014033017       11.21128256643379
F            9.05582628546456       -2.51875455009799       10.52767314467964
C           10.26409591812856       -0.99801906097024       11.85873291685492
F           11.44360677014850       -1.41396999828670       11.38521201173188
F           10.31839567542685        0.30255321953704       12.16527362340523
C            9.91846667432743       -1.80508725912342       13.13431736951148
F            8.71090273821044       -1.43819755820103       13.57579956715489
F            9.92918152330090       -3.11050579789232       12.84497951760683
C           10.94997002493407       -1.54731067424742       14.25943432674403
F           12.17262295125273       -1.88362543423809       13.82609199610711
F           10.92438054093205       -0.25073335459518       14.59724960115460
F           10.62014957893049       -2.29928132227639       15.31981223574394
N            7.49831887893424        1.06975215217579        2.70308750603690
N            6.59830259794118        1.05196868151900        1.80777259532611
H            0.33634739366627       -0.53545934547814       -0.28936828885913
H            0.67148477908087       -0.96504772957598        1.45813693789705
H            2.59035510428431        0.32576960092487       -0.52309134946013
H            3.46747465174281       -1.11108741406807        1.85309337210719
H            2.87730405016214        0.48934864622441        2.38373349986465
H            7.55330812279909       -1.08779636960589        5.85251151813485
H            6.89481417712441        0.46626828174579        6.41129962334626
H            9.16235414349131        1.10535778588718        7.28373825182038
H            9.81471206135810       -0.43786998662059        6.73363646257076
