22
 energy: -2.438474020907 gnorm: 0.000357709323 xtb: 6.6.1 (8d0f1dd)
C            1.08023637341375       -0.28736183770434        0.18868622809350
C            2.24757530599354        0.29381054596029        0.00908788521829
C            2.98075839898188        0.35435231448073       -1.31019697989111
C            2.14530847412004        1.06974667804244       -2.41949628066273
C            3.05237723272931        1.25614833223447       -3.66683156531040
C            4.43362538428958        0.64062621189314       -3.33367000248136
C            4.30849055985374       -0.87963953008802       -3.06643281693997
C            3.40865210026571       -1.06125535213568       -1.81272038798751
N            4.89460800348218        1.24725136803266       -2.14497900347910
N            4.18278606684855        1.11029986572742       -1.15107386377550
H            0.60108752346241       -0.30435590957627        1.14914663094293
H            0.56029369962077       -0.76503746492612       -0.61714746635104
H            2.74284229886871        0.76349250902675        0.84393858616133
H            1.79566161614266        2.03479908985603       -2.03777340646563
H            1.25287557676749        0.48341844625383       -2.65852143598616
H            3.16944742081918        2.31951068446375       -3.90810717729783
H            2.61934024506829        0.77762021519070       -4.55261442607841
H            5.17116414544053        0.85086088662289       -4.12953315658642
H            5.30312446421500       -1.30995690201407       -2.89857989634524
H            3.88729187874607       -1.39100197796253       -3.93941402291018
H            3.94962407651571       -1.57571302061280       -1.01142650593873
H            2.52560915435404       -1.66772515276555       -2.03618093592884
