48
 energy: -8.166448109618 gnorm: 0.000605055544 xtb: 6.6.1 (8d0f1dd)
C            0.81666899494798        0.13617704686798       -0.04986687297844
C            2.06449304590360       -0.25420442905141        0.04191517409054
Si           3.27992264578100        0.59831255665049        1.14815416366835
C            4.84781815738856       -0.37797494266327        1.49623701037253
C            2.47449875976013        1.15706397181574        2.70596312790565
C            1.89278608065530        0.47071285949833        3.74093548971009
C            1.34096684021119        1.17446710137758        4.79966816710647
C            1.37672790001719        2.56114857561811        4.81130047428398
C            1.95794101452125        3.25771971591452        3.77604445413248
C            2.52257307176561        2.56288518666646        2.69367330493184
C            3.16554041255403        3.18159068281009        1.52545159458921
C            3.32061501008814        4.56779807907931        1.31972617511341
C            3.93251218371404        5.01028734783960        0.18101791241691
C            4.41593506193179        4.12336835582967       -0.80770163080649
C            4.26262474500129        2.73724164960156       -0.60075802564933
C            3.65502583765651        2.29432891926640        0.54001297640438
C            5.04327108648648        4.74289705079323       -1.98394503688787
C            5.57072866829718        4.04914798890250       -3.08557850206119
C            6.13347202584292        4.74605770219963       -4.13069029862491
C            6.18776797867818        6.13201965196896       -4.10986688312220
C            5.67298304459341        6.83470820439036       -3.03197574578430
C            5.10982455175234        6.14821246299877       -1.98676959132615
Si           4.33004367988130        6.70611428183624       -0.41549142331794
C            5.57493653452773        7.55616874207366        0.70632303667608
C            2.79466007144107        7.68838561591211       -0.74325147030370
C            2.82968014053575        8.90685716808702       -1.22521125971161
H            0.11347001843831       -0.35832384801473       -0.69246537346848
H            0.45745967278801        0.96790689857036        0.52393088739200
H            2.44543884701284       -1.08248572355330       -0.52360098120586
H            4.60280891828647       -1.32540148778619        1.96655475180452
H            5.49497055696387        0.18549050197545        2.16147512303051
H            5.38178303304556       -0.57354162411583        0.57134316526842
H            1.86859132930595       -0.60496604169948        3.72033676871552
H            0.88289226542499        0.64197893412240        5.61659751768388
H            0.94476764935264        3.09770755563712        5.64005806309480
H            1.98112103688157        4.33226566125764        3.79123977830948
H            2.96469323778605        5.27349024447817        2.04620997515921
H            4.61716537913327        2.03169263788284       -1.32811159741806
H            5.53023937469376        2.97527336762616       -3.10952968245033
H            6.53549012202292        4.21057754310868       -4.97507886283698
H            6.63178502196338        6.66472380096075       -4.93442136212077
H            5.70961036468916        7.90984058405798       -3.00587946468123
H            5.12017863996699        7.78333514866775        1.66575119811399
H            5.91710532221807        8.48159486375521        0.25314862473591
H            6.43143440953920        6.90891106769994        0.86912001825814
H            1.87093401840817        7.18865476428865       -0.52392538497496
H            3.76325167674083        9.38801733060705       -1.44140386401543
H            1.93522156139682        9.46694627419104       -1.42041561922048
