77
 energy: -14.737335309417 gnorm: 0.000873844031 xtb: 6.6.1 (8d0f1dd)
C            4.48324684092903       -0.58514114835514       -1.81777233851257
C            5.07284707634778       -1.77202141351772       -1.74965637578658
C            5.30577072963050       -2.50420839565732       -0.50849072505098
C            5.64733536208099       -1.97832554313532        0.73206773764477
C            5.87091041429219       -0.54703594779185        1.05685133315756
C            5.75724384320233       -3.05644772097446        1.64638576853992
C            6.05708033434288       -2.92991417364190        3.02116285824206
C            6.26479023288900       -3.97000810397554        3.88522907914092
N            6.24298394515546       -5.27878528189506        3.57014739089167
C            6.60862790394714       -6.01935771949338        4.63511716945455
C            6.41001878291050       -7.38368165162106        4.69354182806142
C            5.90916147569639       -8.11991462363601        3.59851369174619
N            5.55771313707802       -7.91895599000148        2.29984724257890
C            5.12653089126811       -9.12673727741659        1.77108877984416
C            4.72057897395130       -9.27950182480425        0.44647035853181
C            4.67305242575640       -8.20763212801253       -0.44378257480121
N            4.94029840644802       -6.91748549838989       -0.13160426551672
C            4.74280843037979       -6.19935616872096       -1.25072108544109
C            4.87717754406876       -4.81480525206299       -1.37800855855096
C            5.22178376761022       -3.92789114154510       -0.36296139868952
N            5.50500185700951       -4.21664225018751        0.95649718072491
C            4.33422714442515       -7.06225770473870       -2.33967780466599
C            4.00155236321079       -6.62552448949926       -3.71917577296888
C            4.30087599243235       -8.32102209996958       -1.83764251744262
C            3.88396485630764       -9.56827609619514       -2.55014510059176
C            2.38441706200041       -9.80575461624687       -2.47758414874032
C            5.19766215127631      -10.11974740652989        2.79644080151390
C            4.83011824169836      -11.54908653163667        2.70492257998363
C            5.68228239322123       -9.47564150276121        3.92507796144143
C            6.02057900279837       -9.69728088559510        5.33226970499690
O            5.92590535331892      -10.73467226467947        5.94336751207131
C            6.50449503665105       -8.35462179921514        5.85344078119918
C            7.12106014400144       -5.15012088138410        5.76481512634818
C            8.65725181979875       -5.11746010496018        5.86216409867156
C            9.31362068187073       -6.44784894307742        6.18860061360962
C           10.80157292205956       -6.30398007500458        6.32468712093370
O           11.43212554551474       -5.77902486141869        5.43242031038925
O           11.34953503834379       -6.78916443307858        7.47598612643875
C           12.72666749721969       -6.59801106998561        7.44981891377226
C            6.56996721754196       -3.76565501704073        5.35715425365830
C            5.33332131845343       -3.36175678568555        6.15307240890342
H            4.32911917498460       -0.08311474616974       -2.75278301550942
H            4.11283601607404       -0.09885453497360       -0.93834353921254
H            5.39130115966622       -2.24928210505143       -2.66170609622201
H            6.18894165986133        0.01059820314782        0.17585718377706
H            6.65208578430723       -0.43272592251360        1.80845756678555
H            4.96044559102222       -0.08791658248388        1.44288240394953
H            6.13771302289912       -1.93542052396154        3.42059277892761
H            5.62695011705985       -7.04568179164864        1.77797681591200
H            4.43559242270145      -10.25745771543973        0.10775177531362
H            4.67006170312664       -4.39353836253013       -2.34395445012722
H            5.50533007168979       -5.15841645281872        1.36403560522150
H            4.85926066071677       -6.14368170086591       -4.19012340852358
H            3.17530970070780       -5.91362827530445       -3.71062556624072
H            3.70715976309300       -7.46689201758317       -4.34651123122393
H            4.42787303398744      -10.42180790862227       -2.12823063337167
H            4.21448008181468       -9.51398068348472       -3.59427453389717
H            2.05156758963087       -9.89488228544449       -1.44228462472675
H            2.08615704722725      -10.71608648415336       -3.00128992194942
H            1.83398503091071       -8.97386996735778       -2.91952007662506
H            5.43931171367399      -12.06141653178617        1.95983027346372
H            3.78154741776972      -11.66527294830647        2.42978428754538
H            4.98421213372561      -12.04362335668747        3.66531181369322
H            7.52959451122224       -8.45165033537757        6.21823093140481
H            5.87903909972201       -8.02554090550531        6.68863510946334
H            6.68278263455221       -5.48197761205855        6.71620748618696
H            9.06381848211089       -4.74869808760948        4.91363113218957
H            8.95822939517857       -4.37663083704550        6.61161959025223
H            9.10535068309421       -7.17655727614127        5.39999803561731
H            8.91048985246445       -6.85654279852220        7.11991743314265
H           13.16263504455404       -6.99422650141931        8.36938892863983
H           12.93635004729269       -5.52895767351247        7.36590307029017
H           13.14032553666714       -7.12010076213199        6.58351343588472
H            7.35660521241171       -3.00232194142952        5.45852843799138
H            4.54952365576010       -4.11082656287334        6.04097030807554
H            4.92994920534609       -2.40988526698726        5.80624791885809
H            5.55599159115319       -3.26833391841656        7.21652870678987
