24
 energy: -4.332106820879 gnorm: 0.000560077409 xtb: 6.6.1 (8d0f1dd)
C            1.08608279749229        0.00589846642463        0.14159370252476
C            2.37769242497235       -0.05182453136170       -0.14939536681870
C            3.09614867622175        0.95242292736445       -0.93719862173516
C            4.26286001586601        0.60107232607820       -1.60435769246546
C            4.98159106463164        1.52327183786987       -2.36435152940753
O            6.14136092397027        1.06794531156866       -3.00369283278730
C            6.80801020089142        2.03728709108271       -3.77418400381316
C            4.50107520453148        2.82677612746599       -2.43610643580895
C            3.34048735368192        3.21891056741164       -1.77567369169997
O            2.94859371798824        4.55703016755534       -1.90990335935434
C            1.79692814864498        4.91164825689426       -1.18485178305039
C            2.64849991884685        2.26487610042412       -1.02881055007678
H            0.60429788052413       -0.75713706963647        0.72140106398295
H            0.46824157331556        0.80752959170520       -0.20897028352868
H            2.95510928138528       -0.89260333692162        0.19754291243575
H            4.62943207678352       -0.40689976018594       -1.54702718120053
H            7.67655237651453        1.57085855657339       -4.24017701652708
H            7.14432653105247        2.85323687835413       -3.13319891165643
H            6.14503561406200        2.41103036018319       -4.55542048884552
H            5.02355831027274        3.56983257953844       -3.00604319288979
H            1.60419212254769        5.97378401004836       -1.33955025414065
H            1.95791352386745        4.73305397036765       -0.12100750865534
H            0.94080012881912        4.34003352042051       -1.54540932511122
H            1.75932013311623        2.54845605077493       -0.50074764937058
