24
 energy: -2.455704384853 gnorm: 0.003293459061 xtb: 6.6.1 (8d0f1dd)
C            0.39284273963029       -0.63496149576274       -1.26451349468847
C            1.54300969729374       -0.27420477537776       -0.85236226426420
C            2.32420782030543       -0.87098547745338        0.19061652216692
C            3.52916657808067       -0.31447960622903        0.49952572616638
C            4.37759871938186       -0.72499469807946        1.42781502190376
C            5.56052022338173       -0.15494867037493        1.70353342455681
C            6.13902053899610       -0.81610299277399        2.70296667082875
C            7.21689282556005       -5.80927286116701        5.73138772866488
C            6.31939300147192       -5.39067797710405        4.92343610471409
C            6.30278403562459       -4.17607155726825        4.28483545994690
O            5.28006604520462       -3.99122248888860        3.50633791670890
C            1.87824138575864       -1.93399065189435        0.83352851420840
O           -0.26147308018735       -0.08290346069324       -2.18508103944369
O            7.18801310001515       -9.04158975612389        5.71121298219283
C            8.21116226030938       -3.89173317955617        3.39325485519356
O            8.93722071620293       -0.64308173749774        4.31447480310568
H            0.65748706549030        2.31963154372029        0.29047639305611
H            0.18887900188061        0.40541740895133        1.90296520828676
H            2.92470434213893        2.29767216388641       -1.13597959805777
H            5.40084659668683        1.59123241623658        2.01239514145717
H            6.59170190317808        0.05952495423763        0.26398007300707
H            5.19340633498051       -4.69633559655349        2.80175639475862
H            8.87019757563872       -7.19359427000245        3.40806288383650
H            6.79951057077458       -2.96499723568826        5.58469457151730
