36
 energy: -7.740418758329 gnorm: 0.000819405528 xtb: 6.6.1 (8d0f1dd)
Br           1.18586400226114       -1.04264701864790        0.20332178753696
C            3.06911558403857       -0.92561919837132        0.23249156666524
C            3.74234029150182       -0.74076336021105       -0.92332391082071
N            5.12293083759390       -0.64934715201994       -0.94736186776312
C            5.76833018789794       -0.44377117095967       -2.23720262269289
N            7.22315384624109       -0.42527647738406       -2.15937942517206
C            7.93145992124678       -0.28727511657515       -3.34045499446780
C            9.28104615025951       -0.24947628929511       -3.35137144461371
Br          10.19316923199323       -0.06403204477894       -4.99351228581022
C           10.00424230717459       -0.34891222019234       -2.13164086060196
C           11.40253762695453       -0.31608757856487       -2.09178933381777
C           12.07403606227500       -0.41430958643365       -0.89849616682581
C           11.36969392724613       -0.54820032407616        0.29084976394007
C            9.99931217065065       -0.58458775520120        0.28229510078672
C            9.28564724794856       -0.48735964171967       -0.91785705137331
C            7.85165724953362       -0.53088038650320       -0.93573401332565
N            7.21438863584268       -0.67814724961520        0.22498721555071
C            5.88382277880092       -0.74629440546217        0.19947078315603
C            5.19375305795053       -0.94085850859530        1.44208592691851
C            5.89213049302774       -1.05225059502984        2.64999108932835
C            5.22595819939415       -1.24283952434749        3.83296766545675
C            3.83994542823330       -1.32794740542580        3.85039006620589
C            3.12686007678583       -1.22312484588214        2.68210113682216
C            3.77935279174213       -1.02997846356932        1.45923968332011
H            3.20181941509512       -0.66130262397986       -1.85050023397055
H            5.42506282773012        0.50525044815251       -2.65681352691762
H            5.46072716140012       -1.24137720308402       -2.91823466289236
H            7.38609822608741       -0.20815962297722       -4.26483404564004
H           11.94468539662541       -0.21287781383781       -3.01497646305311
H           13.15111121821770       -0.38851058675422       -0.88333198057802
H           11.90393146987587       -0.62454477694912        1.22354602290067
H            9.44790769335183       -0.68936978791093        1.20005704462902
H            6.96570173140630       -0.98678098904500        2.62934642125098
H            5.77888959490484       -1.32756285551065        4.75399570230695
H            3.32399382382939       -1.47789460708047        4.78439334188736
H            2.05353333488162       -1.29161326216159        2.69125457167424
