25
 energy: -4.954041913235 gnorm: 0.000540846774 xtb: 6.6.1 (8d0f1dd)
C            1.25310165890516       -0.41409817687127        0.15608228908395
C            2.42676994376234        0.18355695573755        0.00770966354695
C            3.08035076528099        1.01232953353634        1.00612270135533
C            4.27107497197452        1.59339306424411        0.71401065663591
C            4.95225454889072        2.39697864064833        1.65434618984121
C            6.18638629722111        3.00355648583848        1.37733672310054
C            6.81398781328921        3.76393342297209        2.31908250302768
C            6.24775200610518        3.96332423097088        3.59318064684579
O            6.96203939863272        4.74926388476370        4.49268266437359
C            6.35921070904387        4.90019294845525        5.75384032042193
C            5.02419816317085        3.36602136192087        3.86515239890962
C            4.36489162011394        2.58642488523552        2.92086270136742
O            3.14932968459779        2.01751983858862        3.25315230081153
C            2.48649180953231        1.23335976070173        2.33155838209284
O            1.41226761696614        0.71444229141309        2.59390047537212
H            0.82135311573505       -1.01796285475968       -0.61741666056193
H            0.69823512521455       -0.31135612456169        1.06672709981128
H            2.95467381300241        0.05416277022535       -0.92301486901397
H            4.71456204883337        1.43926093225549       -0.25302363088975
H            6.63409649127292        2.85943411172585        0.40936914970112
H            7.76081095540504        4.22884312499892        2.10979522288551
H            7.00996999137114        5.51884030088127        6.37307280310990
H            6.24161287738142        3.92430680584946        6.22701497935665
H            5.39415763018501        5.39701890719034        5.64515624181645
H            4.55227094411214        3.49165289803979        4.81985904699824
