21
 energy: -4.361678783406 gnorm: 0.000561297185 xtb: 6.6.1 (8d0f1dd)
C            1.20511199656436       -0.08711471025616        0.53882794827258
C            2.33568795686878        0.01584298840033       -0.14427462477441
C            2.98965220943784        1.26355188061622       -0.50690635351251
C            4.11073633143602        1.23163567365549       -1.26418434190611
C            4.78274820422289        2.42101403021746       -1.64596724483078
C            5.94296656746506        2.41004543579043       -2.42941763967717
C            6.56177409458872        3.58221118500086       -2.77462457315777
C            6.04144660471835        4.79787745893333       -2.34799120519039
C            4.90840678073240        4.83164442769176       -1.58148102475272
C            4.25483263004689        3.65050716411235       -1.21472861102699
O            3.11219537361733        3.72440323311846       -0.44107336051180
C            2.45930048310613        2.56610092508202       -0.07316719305916
O            1.44480932122924        2.59487171144134        0.60595214709936
H            0.76781734026808       -1.03666105681740        0.77647264881719
H            0.69028034822751        0.78880865394038        0.87868873039014
H            2.82261814120204       -0.88909388417860       -0.46963959988843
H            4.50689618636185        0.28663077213070       -1.58900145463489
H            6.34337518793108        1.46666472461675       -2.75794837202419
H            7.45422900639372        3.56337029197012       -3.37784362268886
H            6.53273900759625        5.71692661839018       -2.62199933264313
H            4.49439622798527        5.76533247614404       -1.24425292029996
