64
 energy: -11.021183762753 gnorm: 0.000303964216 xtb: 6.6.1 (8d0f1dd)
C            0.96025158294674       -0.09820116405449        1.90129518299219
C            0.99223641969522        0.92342985056924        1.05681052169969
C            2.06781279094985        1.90476299966014        0.94840273690373
C            1.90762248893435        3.01532486613536        0.11921609093822
C            2.90354099683223        3.94867039736949       -0.01649055601198
C            4.11436888233534        3.82165199300277        0.66976251529375
C            5.16068945304181        4.80270472848896        0.49154684190727
C            6.40441261883278        4.83172309386724        1.10133626026945
C            7.21800164701873        5.88787750359223        0.69899901022805
C            6.63374869703082        6.71918445199757       -0.23945609961080
C            7.25218530536867        7.83879361973462       -0.84549021111623
N            6.65427184505535        8.65520484249719       -1.75768346377410
N            7.49252173947358        9.53398082564372       -2.12561965099473
C            8.65980017947323        9.31932424879133       -1.46681026262088
C            9.85557263348531       10.09710932388129       -1.65734269706705
C            9.89699245737945       11.13110944542002       -2.59882563527374
C           11.05680528003436       11.82019935840682       -2.82346460094564
C           12.21821193542407       11.50580078380747       -2.11260741124699
C           13.45116265176750       12.18941011857980       -2.40177772881132
N           14.62570846394049       11.95337686657665       -1.76349036407704
N           15.52099961179640       12.68860560085890       -2.28125243061035
C           14.95436826373108       13.43029200037875       -3.27366213104614
C           15.65608847482580       14.34511708779116       -4.09458983088340
C           15.09882848416451       15.11719627631063       -5.09745453550230
C           16.02107730373265       15.90747645504433       -5.77826994684639
C           17.32626480361311       15.77872852462017       -5.33160097979363
C           18.50209150644508       16.43941229608282       -5.85167085924171
C           19.75709622899052       16.19712679740563       -5.28662988225993
C           20.88702129490228       16.79971568649805       -5.77851340759725
C           20.82395420969513       17.67778537743408       -6.86081617064476
C           22.04911736482147       18.29226016163272       -7.36367473823697
C           22.11767917923214       19.22150878394313       -8.30692052168417
C           19.57207756682846       17.92288496775338       -7.42618943150312
C           18.44004536440490       17.32096316918487       -6.93538971128145
S           17.36104035721834       14.65800735114766       -4.00909258426609
O           13.63313971277177       13.13158309595926       -3.35148530097391
C           12.16996886033694       10.48908431018093       -1.15283302849566
C           11.01146642664353        9.79679326168449       -0.93161444955474
O            8.52542128905440        8.26033408751432       -0.64031236195017
S            5.02544973834546        6.16102027088282       -0.57631411748875
C            4.27249696146971        2.70991186888929        1.50296674372900
C            3.27485990166517        1.77636153714070        1.63663387870786
H            0.13372637055927       -0.78235951554722        1.92256446521823
H            1.74792755756002       -0.28068781468498        2.60275898652036
H            0.15896877631930        1.05718256442773        0.38588542950232
H            0.98433872928630        3.13584682056116       -0.42224203931652
H            2.76057485006751        4.79602439708414       -0.66477069215174
H            6.72681341381524        4.09517831399856        1.82091602701796
H            8.22163539271343        6.04973010283077        1.06504113868805
H            9.00397372703325       11.36248666792058       -3.15543887506794
H           11.09941717075260       12.60577315430577       -3.56010697711681
H           14.04304775432380       15.08947512284153       -5.32546781509645
H           15.73635202076633       16.55693652700509       -6.59148080102877
H           19.82894021266991       15.52063791583231       -4.45241098822949
H           21.84251937999467       16.59457496594447       -5.32563298650279
H           22.96878813607749       17.95053184230431       -6.91669249328555
H           21.24324365368091       19.61342454841221       -8.78390289506481
H           23.05833088575018       19.62720996479137       -8.62671496346730
H           19.49056723303488       18.58749884199453       -8.26795510461312
H           17.48983078187192       17.52639668700429       -7.39553341728828
H           13.06597285589875       10.25011290032768       -0.60428173838264
H           10.97317062086095        9.00048752236703       -0.20634499455436
H            5.19452532845965        2.58025238382878        2.04142856080090
H            3.43411417485670        0.92520896414424        2.27471749227237
