20
 energy: -3.736398093114 gnorm: 0.000701339650 xtb: 6.6.1 (8d0f1dd)
C            1.12926389331731       -0.15904649267030        0.10900955724990
C            2.40507557294053        0.15558187229235       -0.07342031556222
C            3.16097033807284        1.10905835540020        0.73533044889835
C            4.41440396995555        1.54393255907412        0.30254132430711
C            5.14922620193297        2.43469267813539        1.04403101105691
C            4.67167271140416        2.93447469291785        2.25885942592291
O            5.48591036395695        3.83460444644648        2.95088418103724
C            4.96363768405918        4.27642523184268        4.18052214200335
C            3.41682523595002        2.49663674850318        2.69320398438877
C            2.68224941236028        1.60566520850991        1.94899325663184
H            0.62883231885401       -0.86897057031043       -0.52003709583430
H            0.54167705159753        0.29165059979653        0.88287530126072
H            2.94232365276184       -0.31205652907641       -0.88225078074194
H            4.80271886991545        1.17223335964562       -0.63020301142005
H            6.11417788203175        2.76714453362303        0.70442652696748
H            5.68554559866895        4.95211593464531        4.64047168380106
H            4.80363025382083        3.42577358263761        4.84427959406076
H            4.02973229491574        4.81510535656984        4.01577625730437
H            3.02041533293391        2.86018845974678        3.62366118506073
H            1.72620136055015        1.27492997227030        2.31444532360703
