87
 energy: -15.528165399828 gnorm: 0.000985682949 xtb: 6.6.1 (8d0f1dd)
C            3.80702641034512       -1.86049154237281        2.83652304141985
O            4.93049230353446       -2.22249652593363        2.95690074584987
C            1.10254156465724       -0.49325714677252        0.12320126123126
O            2.35804784267695       -1.08863043410438        0.34935057814896
C            3.05903039076783       -1.35406468927489       -0.86329468843242
C            4.42779885897173       -1.97378560635087       -0.61464694886710
O            5.12129434690686       -2.23623890750480       -1.82812470730483
C            6.41876948633641       -2.77451868145420       -1.60246456182911
C            7.15242973208763       -3.05193870415161       -2.90381060027472
C            8.56014756050982       -3.58568490955391       -2.69209183774040
O            9.22735211905584       -3.81109570430144       -3.92850371794595
C           10.53556456067266       -4.22045426547672       -3.81768319803692
C           11.26014415833643       -4.40076478440191       -5.01344652421878
C           12.56762519503812       -4.78690297302804       -4.99820132835868
C           13.24031472369410       -5.02323517829470       -3.78638887015987
C           14.61472749727674       -5.40781860938805       -3.80824547756833
C           15.38356022293819       -5.67279124932606       -2.72269761156439
C           16.75014935740504       -6.02473483736725       -2.79225060458378
C           17.59796080646167       -6.16381453807672       -3.93533761959538
I           17.02440206888107       -5.88646958667261       -5.91792097999856
C           18.85569302765381       -6.51004096268817       -3.50554230308806
C           20.03518467683132       -6.73817932844440       -4.37601179003449
C           18.82757401112227       -6.57905398006273       -2.06258851336827
N           17.53411808572578       -6.28817933536676       -1.71350757497868
B           17.00038654886119       -6.28220175739352       -0.28333771148508
F           16.02219347069342       -7.26242880076729       -0.15265105588285
F           16.49125815310957       -5.02336928270925        0.01682713040929
N           18.16043079505855       -6.59955483403015        0.65689923958456
C           18.03838671478133       -6.65397446209350        1.98780018541352
C           16.78980762298286       -6.42993210920409        2.73835359632077
C           19.32276517683600       -6.96115738939875        2.49441211046458
I           19.80050287335371       -7.19853005413619        4.50800948517420
C           20.20099460848268       -7.07786680272885        1.43037595268196
C           21.64653007131969       -7.39512195081267        1.53012069634039
C           19.45430714992841       -6.85800243952935        0.22973987503572
C           19.83696609840541       -6.86796379450490       -1.12412336225114
C           21.22738984563832       -7.16253328424944       -1.54017693544501
C           22.08558377547141       -6.13579150294264       -1.91963127160980
C           23.39920188757074       -6.39009493578369       -2.32336200305453
O           24.17840102693253       -5.29644192498445       -2.69227313686753
C           25.49504966537339       -5.61219983440003       -3.07302646112889
C           23.83617335841207       -7.71340682870210       -2.33097340021016
C           23.00561073918458       -8.76806805338088       -1.95420839890140
O           23.54366142779622      -10.05198445032245       -1.99600229808393
C           22.65934824130401      -11.07470859378532       -1.60805598052644
C           21.69654934558724       -8.47232589077984       -1.56183050356913
C           12.51770933090146       -4.85619533532337       -2.59065095825232
C           11.20895842313731       -4.46825716950371       -2.60327857652420
H            3.45178512457397       -1.57651272155875        1.85806827125423
H            3.15360604511768       -1.83185307525383        3.69244473555993
H            0.61346647781174       -0.32458551696263        1.08310600760134
H            0.48253947899705       -1.15445219405551       -0.48336566391978
H            1.23321235813581        0.46251816752663       -0.38574837146856
H            3.16557979454278       -0.41351081899682       -1.41367905319484
H            2.44730164826565       -2.02280727885274       -1.47758750153406
H            4.32723049261539       -2.91651032826153       -0.06637631864433
H            5.04351277576441       -1.30410093359052       -0.00472018726015
H            6.31038158109795       -3.69293050672156       -1.01471037058342
H            6.97940077888368       -2.06093459065905       -0.98826250599505
H            7.19574441596476       -2.13548885398453       -3.50128025197694
H            6.57670865307163       -3.75931257905559       -3.50940976054276
H            8.53428549248779       -4.53190633219082       -2.14040972053992
H            9.15286917380913       -2.87072714023224       -2.11076482648321
H           10.75162891892002       -4.21744330498649       -5.94308666192670
H           13.10320393731512       -4.91245455804810       -5.92344877922184
H           15.09022018094208       -5.48504657461571       -4.78734945095139
H           14.96294580080533       -5.61118921399525       -1.73630679264710
H           19.73454246142461       -6.88389841445823       -5.41357269060418
H           20.58517228843211       -7.62593260312695       -4.06332096696079
H           20.71437838511173       -5.88621535986637       -4.34028419446866
H           15.97231835017434       -6.21770837764542        2.04767809885162
H           16.89085588027056       -5.58292605890902        3.41689170600360
H           16.52304871228499       -7.31126610405245        3.32157912877668
H           22.00606363451621       -7.26702246697766        2.55119044363389
H           21.83938027851241       -8.42619255591401        1.23356210812535
H           22.23475059371161       -6.73985309957420        0.88741143496997
H           21.73862703935493       -5.11975209925234       -1.90410075236123
H           26.01183305715665       -4.68616556503172       -3.32730407219976
H           25.48220954349976       -6.26293224994513       -3.94811648658699
H           26.01604398422770       -6.09240780619609       -2.24391371443895
H           24.83644003993998       -7.95428948991084       -2.63258540936249
H           23.18303469004436      -12.02861724385391       -1.67880464043962
H           21.79745595957269      -11.09337963805973       -2.27618353556444
H           22.34243258733375      -10.92041311000795       -0.57593506475454
H           21.02643896540663       -9.25839613600233       -1.27159672707705
H           13.00663364376674       -5.03303300873301       -1.64950537989921
H           10.68562141365371       -4.35191629073637       -1.67216447471562
