37
 energy: -7.596171884402 gnorm: 0.000424271349 xtb: 6.6.1 (8d0f1dd)
C            1.00434194660754       -0.01631678902291       -0.09326376299432
B            2.58113539910005       -0.00197470154598       -0.07200603645029
C            3.32562161411349       -1.29109058570060       -0.11805718431652
C            4.66952752593406       -1.23359390820840       -0.15104870938490
C            5.38824406252809       -0.01637872982911       -0.11405573313981
C            6.80999482112571       -0.06710801589681       -0.17639504167664
C            7.55750051381080        1.05445335571729       -0.13723117894803
C            6.94569886124646        2.33150830007184       -0.01089960224278
C            7.73746514380940        3.49217710450548        0.06122449220034
C            7.16598450651480        4.72194707675680        0.21613804549884
C            5.78334048255591        4.83348460767259        0.31033433023126
C            4.99424746319602        3.71993204378632        0.23641749039622
C            5.53486914166620        2.43232611255502        0.06040454023494
C            4.73153584766043        1.22727630231729       -0.02434221362676
N            3.34566572913392        1.23106192520942       -0.03643014230794
C            2.48512781362258        2.37308844597886       -0.13352171101664
C            1.85747542018498        2.88410386820400        0.99624034246552
C            1.03140808035612        3.98206359763344        0.89619638807759
C            0.81584165775908        4.57635799632428       -0.33182476173716
C            1.42565840751176        4.06884613923615       -1.46234842609664
C            2.25366890624442        2.97209720102557       -1.36570087495089
H            0.62974273970795       -1.01118688179639       -0.31672860250366
H            0.63615360191295        0.67113696147183       -0.84921717152368
H            0.62623655801185        0.29107072296483        0.87743569964134
H            2.77754399905383       -2.21288092001278       -0.14243695428247
H            5.23229941747638       -2.15050189229906       -0.20577064759783
H            7.28758946124965       -1.02835600715652       -0.26173072624226
H            8.63119020574894        0.99557854943457       -0.18873812446254
H            8.80807865162118        3.39751483863677       -0.00178495847580
H            7.78254969714344        5.60421345281463        0.27311772652016
H            5.33386419896182        5.80401089193822        0.44528277248021
H            3.93515174776934        3.84202015519332        0.33193149322515
H            2.03696707250807        2.41394919930224        1.94747991854893
H            0.55285926586003        4.37698687337137        1.77749325555279
H            0.16926970940714        5.43532277542003       -0.40830479729097
H            1.25490417051804        4.53124219495981       -2.42081458361663
H            2.73743615836745        2.56800773896598       -2.23788455018928
