8
 energy: -1.072022918641 gnorm: 0.000446944912 xtb: 6.6.1 (8d0f1dd)
C            1.08909785063599        0.03994748795161        0.03272003370886
C            2.60219739989683        0.03994751334481        0.03272003893707
H            0.68352990198971        0.28423354884741        1.01821133406965
H            0.68352967876287       -0.93565590846099       -0.24846758020386
H            0.68353003337512        0.77126487654635       -0.67158378558398
H            3.00774521397658       -0.69137567776352        0.73702844717490
H            3.00774483821802        1.01555838096938        0.31391015641059
H            3.00774508314488       -0.20434022143505       -0.95277864451323
