79
 energy: -16.210315869380 gnorm: 0.000939478970 xtb: 6.6.1 (8d0f1dd)
C            1.67307365957933        0.89346408942610       -2.22201017446760
C            2.85327544803167        1.10528308874866       -2.05649950144333
C            4.22946038159261        1.34683151730165       -1.82587731499185
O            4.68598703679183        0.99243583080777       -0.51944235165505
C            6.01576797814687        1.26281078736352       -0.26673434236860
C            6.50355895276332        0.95575250512329        1.01425215456993
C            7.80254083662130        1.20112288042111        1.35358863492263
C            8.70197887243835        1.76380247308819        0.44222020011471
C           10.08012052564022        2.03090430822570        0.79831339561633
C           11.00227748617502        2.75775265570816        0.01981466756249
C           12.22679395500686        2.78410598863872        0.66343398369873
C           13.43686982705069        3.46199417956809        0.20774510655558
C           13.54689821979052        3.96783378904333       -1.08766186185748
C           14.69061047002928        4.61618981811272       -1.49491450515755
C           15.74675726116062        4.77748405609360       -0.62101854634256
C           15.65668310109269        4.28622019200137        0.66501430886955
C           14.51593637154911        3.63594927540795        1.07118371501928
C           12.07938999261031        2.03396880177880        1.88233963875981
N           10.77197445181492        1.63037726538756        1.91078279544549
B           10.26158067441004        0.79619219653988        3.07964316094924
F            9.78338195923341       -0.40217510530665        2.57360439194711
F            9.28403764564477        1.50418512156730        3.76157727839287
N           11.40673297266057        0.52291544124140        4.04818122188348
C           11.35894769293748       -0.14850208080440        5.24176541910583
C           10.22241573508291       -0.77531788586501        5.88499841583423
C           10.32441830232926       -1.29798451473048        7.18238895023979
C            9.25577956346787       -1.89490383287577        7.78992869332610
C            8.01498958450347       -2.01131008995022        7.14037372053163
O            6.99574922348124       -2.64389738634725        7.82346953827815
C            5.77988574359458       -2.77857718425077        7.10027530429216
C            4.73795216073942       -3.54955288834738        7.89726851575289
C            3.43250902155477       -3.73493979137170        7.15472072980469
S            2.25730365918020       -4.71120948457909        8.18710987990256
O            3.06202643941181       -5.94530947767440        8.37803141129695
O            2.12975001695196       -3.80385658761459        9.35573124104244
O            1.09543418657505       -4.79992160179135        7.27242035897759
C            7.91041520144969       -1.48009911515862        5.84370430259785
C            8.98405987809184       -0.88632051919215        5.24342694404123
C           12.66799777786255       -0.09257082530818        5.76001863356906
C           13.47967255041414        0.60691356495465        4.88474333818378
C           14.90899950788579        0.86605525939893        5.03524000235239
C           15.56493033625462        0.66284124386432        6.24953304065856
C           16.91582294063668        0.89880305583689        6.36702830541560
C           17.64281043046714        1.33763514006602        5.27886346662601
C           17.01271610654464        1.54286889258750        4.06878264811895
C           15.66284441420433        1.31175098359085        3.95193860860970
C           12.65396268367862        1.02032851508899        3.78200731870951
N           13.05037564657175        1.76974254451425        2.75466281042714
C            8.21768112565895        2.06645992629095       -0.83889234839697
C            6.91788700946741        1.82459068890981       -1.18675976324675
H            0.63272864808370        0.70064909088786       -2.35396946680038
H            4.44266145128861        2.41268315946009       -1.96991618589637
H            4.83045726906624        0.78009771742829       -2.54693516328891
H            5.82069768099753        0.52631566430775        1.72574866737170
H            8.14675472722896        0.97650610559007        2.34412116918415
H           10.78288746644172        3.24551159100519       -0.91254412439441
H           12.73022724689921        3.84082992715839       -1.77575560289384
H           14.76202117694207        4.99947675791415       -2.49948215234223
H           16.64016052762896        5.28640134004267       -0.94326034528886
H           16.47905455580414        4.41150877040853        1.34985857307698
H           14.43525912975096        3.25801909159240        2.07216965170607
H           11.25823109113799       -1.22224842247253        7.70935311774656
H            9.34175139568406       -2.29554873506293        8.78455778413102
H            5.99939981813459       -3.29792556663586        6.16068085127627
H            5.41396470258061       -1.77421487394823        6.85933489151829
H            4.55626071050206       -3.03812882737436        8.85131048165035
H            5.14833018656537       -4.52884294118735        8.17613569774467
H            3.58241089827961       -4.26517181109683        6.21409957668185
H            2.96930592345926       -2.77691948494302        6.91806824582730
H            6.97756028429038       -1.54099977313758        5.31383051342834
H            8.88797722711874       -0.50354094872098        4.24667968819705
H           12.99588186166940       -0.54213820502546        6.67966185989368
H           15.00305150050643        0.32744396856727        7.10302328417446
H           17.40802300204012        0.74080951504415        7.31252786338451
H           18.70049449361695        1.51988402924425        5.37434853175428
H           17.57704885461103        1.88476412702921        3.21691857634057
H           15.16663923591476        1.46349592524442        3.01261753635852
H            8.88902879265486        2.48799325375354       -1.56548378561395
H            6.58449512260269        2.06705184951193       -2.17892527651428
