43
 energy: -7.901925761249 gnorm: 0.000399091048 xtb: 6.6.1 (8d0f1dd)
C            2.04347573634481        2.87664114840555       -1.34477494902736
C            2.80094974130532        1.60035112908683       -1.19247654673015
O            2.24767638180327        0.55662313929263       -1.47013960247427
C            4.18282431237700        1.64954650337087       -0.74048118735460
C            4.92348228709843        0.48551056880549       -0.57789053691723
O            4.46101628758697       -0.72845261323654       -0.89962503370131
C            6.29383480906575        0.56800264789723        0.00517460828789
C            7.11199018486825        1.73953402768834       -0.56406893753127
O            7.59000642124795        1.41481582649464       -1.88003049260817
C            7.25949395952144        2.44490979067970       -2.74669247162971
C            7.55877198437937        2.52208824531968       -4.12082472915413
C            8.21748910594503        1.41625068814846       -4.80441764381869
C            8.49397659001820        0.15797635295598       -4.05163028702968
O            8.55366249119940        1.47944890605936       -5.96851496474669
C            7.18492878593104        3.70345269532846       -4.81264693577293
O            7.44602466581408        3.85113744326980       -6.15025685761501
C            6.53981355749615        4.75986140068842       -4.14731895417687
C            6.19724599302860        5.97253911070576       -4.91972122319114
C            6.23579149939884        4.66563459058466       -2.77751225459834
O            5.64640749312678        5.68733852738647       -2.07239235826309
C            6.57930123662906        3.48402823394947       -2.11211912924448
C            6.32601552634069        3.09856131121911       -0.67384690138447
C            6.87495560244707        4.15637265064752        0.27682598095848
C            4.81574010107177        2.93112311334293       -0.43727057255053
O            4.17869855240521        3.87731543768077       -0.02439437410259
H            0.98483676999954        2.66640373304892       -1.49108149871756
H            2.40726313293354        3.43846397473706       -2.20431886305823
H            2.15670093513877        3.50096012998347       -0.45806522577812
H            3.54639076596659       -0.61942632004605       -1.22539766285385
H            6.21863647653280        0.63778641141803        1.09497706923698
H            6.81036131215610       -0.37054971392006       -0.21732977495178
H            8.01350073725724        1.90334166939510        0.04684175724735
H            9.26660148192848        0.32144332521038       -3.30099903991083
H            8.83409778481591       -0.61797758054619       -4.73623667047976
H            7.59614867028791       -0.19539626806887       -3.54413518995613
H            7.90550795201177        3.04109185345311       -6.44174685748251
H            6.51467640152639        5.85939266842932       -5.95752120851060
H            6.69811682038494        6.85184170737554       -4.51384803673713
H            5.12114353708558        6.14791269981865       -4.91961111109977
H            5.40652050427024        6.42962756631824       -2.66607784750766
H            7.93059123922321        4.34683356195143        0.08875500425561
H            6.74946032263299        3.84775712647141        1.31348433163471
H            6.32339184939641        5.08592257920010        0.13221717904838
