59
 energy: -12.570184378945 gnorm: 0.000609010290 xtb: 6.6.1 (8d0f1dd)
C            1.41724766083981       -0.46721818974232        0.78121862033896
C            2.85245041012712       -0.12645059499347        0.57991274847229
O            3.57722098030604       -0.04752980465416        1.54613703445530
N            3.35570324344326        0.11330380400751       -0.72278254373787
C            2.44995337778283       -0.01764786027805       -1.88945175515506
C            1.22855117052689        0.84662777802932       -1.82802763349064
C            0.07279696141398        0.42281048392002       -2.45665027885666
C           -1.05669392135947        1.19990269644298       -2.40080892543499
C           -0.98551915746285        2.38419431096453       -1.71381601647563
C            0.20697064046803        2.73387086320169       -1.12943517442054
N            1.30817508420483        2.00493508522312       -1.18082193263014
C            4.73704864201872        0.35040517658743       -0.94715286634532
C            5.72487003032600       -0.59676587909322       -0.53800993945219
C            5.35429076792987       -1.77853051200791        0.13133171023094
C            6.27809229305796       -2.70313629770348        0.51638738561626
C            7.62733998685677       -2.49518608800913        0.23902288047071
C            8.02161254948730       -1.37105941497643       -0.42047854888400
C            7.09986332856678       -0.38776543418672       -0.83826457657589
C            7.50923540408422        0.77261411795478       -1.55220510406880
C            6.54041917409306        1.72053205677885       -1.94307993413134
C            6.91430794827741        2.90214188464313       -2.64090634068373
C            5.96816015501904        3.84021219107253       -2.97525244359569
C            4.63571390916901        3.65802990182835       -2.63494646682913
C            4.24711836976671        2.52724539379666       -1.97624683371802
C            5.16583646428425        1.52417494864117       -1.63370544439296
C            8.30937741927891        3.13503359153793       -2.99799257946564
O            8.64733846800531        4.13094830529334       -3.61416184195932
N            9.23817744440109        2.17600601129085       -2.59728586534205
C           10.63876599923863        2.41830419329123       -2.90128255067886
C           11.29392749836284        3.37226378296020       -1.95344123908177
C           10.64279450416257        3.73584743717621       -0.79136250826225
C           11.23736582951304        4.61291000960877        0.07896782818683
C           12.47859390954233        5.09270207670738       -0.25069739145098
C           13.05806764400004        4.67005635248940       -1.42259681090484
N           12.50328668268422        3.82576155237704       -2.27368506279592
C            8.91012145787435        1.01330814379646       -1.88586486538330
O            9.80601931647323        0.24621586124473       -1.56716888359689
H            1.27699342611034       -0.90881248338176        1.76691384606564
H            1.06580121267984       -1.18100824304917        0.03784308568237
H            0.80161931842115        0.42954329841600        0.72406215901330
H            2.16674204904485       -1.06903463668212       -1.97864230601900
H            3.01643059591860        0.22099077029911       -2.79285881112305
H            0.06509572971241       -0.51606718835127       -2.98278338025191
H           -1.97049273147161        0.88870825709146       -2.87969566619543
H           -1.84617499857904        3.02785562795325       -1.63630563345927
H            0.27822016331471        3.66486803728474       -0.58788900794161
H            4.31581954434366       -1.93441555402084        0.36033587506395
H            5.96891045393980       -3.59221041165886        1.04076269203191
H            8.35669964219922       -3.22631504548012        0.54688866742166
H            9.06325838328836       -1.22018867601868       -0.63513578721461
H            6.28670643957231        4.72606475440209       -3.49822012368647
H            3.90927365358485        4.41231963957238       -2.88863556455339
H            3.21821164036510        2.39909736498306       -1.69366931194816
H           10.70112817936420        2.81336455331085       -3.91947512332832
H           11.16256962938613        1.45789371129188       -2.87737325311214
H            9.66797585049868        3.32962947016922       -0.58655449633115
H           10.74416846308823        4.91636312529084        0.98778903240060
H           12.98902522954812        5.78755200333074        0.39566535566477
H           14.03579647889786        5.04003369004593       -1.69216809814384
