36
 energy: -7.452072114322 gnorm: 0.000845566810 xtb: 6.6.1 (8d0f1dd)
C            0.77555673639092        0.12824557571126        0.39786620473026
C            2.19995832124688        0.07682469606068       -0.03601073246395
O            2.50836414568699       -0.56957713422068       -1.01369656633767
N            3.11879248736244        0.79482766392747        0.71762838044655
C            4.49924899029752        0.86638797868764        0.48439146462867
C            5.31390624869728        1.64308330207058        1.30854802261696
C            6.66483817014916        1.72089776367501        1.08831694195372
C            7.26536603788352        1.03841925732988        0.02169202016335
C            8.69750367511999        1.10440036217567       -0.16818033035483
C            9.39409120870819        0.98736034418960       -1.34399916292999
O           10.77216025025002        0.78488261015791       -1.36972727085519
C           11.18177473585829        0.64943200960152       -2.67459507204870
O           12.29963897627662        0.43194419237737       -3.10022591337374
C           10.00562683056328        0.82624518165021       -3.53784127615359
C            9.90689103214107        0.84710069290512       -4.91236898042167
C            8.67072145299857        1.12557600408024       -5.49716397160350
N            8.53713563154373        1.15114781790183       -6.87029680417500
C            7.56751143836932        1.39654016882190       -4.66353280156996
C            7.67700578589477        1.37400206359912       -3.29617152952156
C            8.90713125849538        1.05653190779019       -2.71710387894388
C            6.44621667283252        0.23350323453237       -0.78030628665431
C            5.09711775595044        0.16034398030062       -0.55645246138409
H            0.18072251754921       -0.55959489512972       -0.20172291485835
H            0.36751435505466        1.13014584408144        0.27026024308438
H            0.67586062891364       -0.15886765590499        1.44402911366788
H            2.76135085979883        1.31868546279966        1.51060163232684
H            4.86647149453392        2.18111179858244        2.12556112658927
H            7.28156374448458        2.32277505217751        1.73333341012653
H            9.29864444071226        1.20675464560918        0.71929107807788
H           10.77612528191140        0.66551784736791       -5.51652479666902
H            9.31728141530265        1.03987529184903       -7.50207556261335
H            7.68880464309917        1.43300775067354       -7.34043886092419
H            6.62453264184244        1.63320419421344       -5.12342342988596
H            6.83767553036467        1.63122652223018       -2.67666641512793
H            6.89528874910029       -0.36232612231347       -1.55578627505497
H            4.47142585461278       -0.45553540956155       -1.17710834448661
