40
 energy: -8.613307111180 gnorm: 0.000625046351 xtb: 6.6.1 (8d0f1dd)
C            0.83312386304911        0.48145128767974        0.15404939760565
C            2.27132222371486        0.62070501083998       -0.20354756726603
O            2.59850050956571        0.54126211746436       -1.36686465621319
N            3.18477961539818        0.83798448507526        0.82233851102307
C            4.56718170307139        0.99307418465677        0.67193409719723
C            5.37898732465296        1.20612347192813        1.78608049881247
C            6.73435849181463        1.36635985438730        1.64603777760013
C            7.33978980417382        1.32298555443637        0.38922253929168
C            8.77913074790897        1.50498957876318        0.25313295546317
C            9.47789099118968        1.69627589568813       -0.91647546976377
C           10.86260365022203        1.81728313953903       -0.61832011003297
C           11.94647878364192        1.98916527037099       -1.44040873213988
C           11.94640172902137        2.26738887338488       -2.85172128603478
C           13.10558555418216        2.02492508271558       -3.60179308239899
C           13.14790057017428        2.29227899342548       -4.94658327879719
C           12.04155018834230        2.82528567844875       -5.60046132191475
C           12.08632831650749        3.10085616170068       -6.97126407155923
N           12.12003027343230        3.33364762627992       -8.10954364265092
C           10.89371717996849        3.09275935799022       -4.86101911504101
C           10.84567541925951        2.82440168878908       -3.51644220574149
C           10.98142076082908        1.64904253582436        0.83523273555433
O           12.01712997107294        1.64555496264461        1.47399816654271
N            9.68657291154153        1.49145274896956        1.30600574790694
C            6.52569032112979        1.10684325684623       -0.72450912737449
C            5.17225648679332        0.94514506827491       -0.58147971276113
H            0.45943242335432       -0.48936995706150       -0.16827737109609
H            0.24701732624887        1.24980792832630       -0.34814665600835
H            0.67406642408308        0.57304611690772        1.22749004842002
H            2.82229223396980        0.88832727305884        1.76945362439877
H            4.92603218931583        1.24538923467185        2.76112976568155
H            7.34420327681927        1.54165488683174        2.51401885002762
H            9.04606466203322        1.68325657468355       -1.89910117638409
H           12.90907053626416        1.90307701154226       -0.96500945264951
H           13.96879016488129        1.61194516171981       -3.10879143768481
H           14.04103399096591        2.09437121489771       -5.51467747784412
H           10.04389033153580        3.52437595833133       -5.36222558010448
H            9.97358271785630        3.10110282743425       -2.95374075818110
H            9.48479130951958        1.30073645151205        2.28377405374578
H            6.96787293080018        1.05756973958144       -1.70357290592960
H            4.54644209169950        0.77736769143247       -1.43963257369677
