45
 energy: -9.039524273676 gnorm: 0.000292869405 xtb: 6.6.1 (8d0f1dd)
C            0.97893360715016        0.34853108301278       -0.87696032390747
C            2.45620636622440        0.18614198037380       -0.94710447662885
O            2.91831411827792       -0.81256159900885       -1.45415770271344
N            3.25301881837183        1.19767761202305       -0.42892928066098
C            4.65625286890195        1.17832161705246       -0.41037089695896
C            5.39248368234919        2.23896329306099        0.11607580775335
C            6.77176922296304        2.19168617059126        0.12907718290266
C            7.43992074662670        1.10160726556152       -0.37398274806024
S            9.24074620683812        1.06227393493920       -0.34834526642865
O            9.66000596892236        1.22888088312576       -1.77189432199549
O            9.59697468427250        2.14859927654875        0.61132579945046
O            9.57872467214217       -0.39782970295509        0.18828616786443
C            6.72665229107283        0.03257792522508       -0.90124100411234
N            7.34122993097180       -1.08567934088425       -1.40922978937997
N            6.66103958981362       -2.00815565595408       -1.87255283747215
C            7.23215581253670       -3.12161773878217       -2.39326072653351
C            6.42640744602438       -4.04834869422454       -3.04743914169856
O            5.08221316253650       -3.87549022975468       -3.14686794202672
C            7.02730772966107       -5.21761524898062       -3.63890153262134
C            6.23619976115662       -6.15014671537169       -4.30586658673128
C            6.79699089115463       -7.26123978826952       -4.87811323735228
C            8.16635830731529       -7.46598318867900       -4.79574558895530
C            8.96404813905315       -6.56154747776526       -4.14425687032191
C            8.41674483708685       -5.42022311022591       -3.55326595318729
N            9.20462961588518       -4.47708179256229       -2.87798972998402
C           10.63979257390526       -4.64075481926248       -2.74804721264761
C            8.65607048372122       -3.33548523045059       -2.28294409803741
O            9.38165685605867       -2.55577269676533       -1.68118168722252
C            5.34570591063860        0.08920710063267       -0.91320750196137
H            0.53044916232705       -0.52303638094582       -0.40244147416306
H            0.56256359316969        0.43697152653463       -1.87926240221147
H            0.69881228846361        1.23276337766212       -0.30649902920298
H            2.79781210474999        2.01429382774866       -0.03378504424971
H            4.87363295799056        3.09379355015709        0.51235536943205
H            7.34705551000303        3.00633988887079        0.54035001827502
H            9.51103881005894       -1.10702782840106       -0.49554727229943
H            4.80363852894795       -3.04827169362442       -2.69331467733265
H            5.17532272525610       -5.97363619934086       -4.36174423752532
H            6.17558459601805       -7.97523578541975       -5.39280108349232
H            8.60384517875391       -8.34105333978324       -5.24720956229755
H           10.02439046510751       -6.72928200761771       -4.08518011259556
H           11.10512219432742       -4.67727433740326       -3.73059125544772
H           10.86652038723584       -5.55025782882193       -2.19600702784521
H           11.04682436144613       -3.79023950034528       -2.20214913494788
H            4.80371283451623       -0.74148238152622       -1.32695157446708
