56
 energy: -10.681612990226 gnorm: 0.000998732096 xtb: 6.6.1 (8d0f1dd)
C            0.38730799606849        1.15629596970164       -0.30062369372898
C            1.75737159965638        0.65223908521637       -0.59028173156420
O            1.91999622799814       -0.53254519814725       -0.78779952724422
N            2.79642880280996        1.57009616675792       -0.62924156040686
C            4.14867802059670        1.26812679340292       -0.88318831367641
C            4.57540286405592       -0.03748403770772       -1.12874865361149
C            5.89212117020406       -0.32378632382535       -1.37382686640467
C            6.86005282996774        0.68720069162606       -1.38850787464382
C            6.43592569566513        2.00289159573075       -1.12617862300963
C            5.09738423556089        2.27373857272081       -0.88537609076765
C            7.39325659511024        3.09669674097950       -1.09370607546783
O            7.03142139429726        4.24915778549250       -0.90267427409314
C            8.79812542838834        2.76938104465751       -1.27797215227588
C            9.74184112951096        3.78065615757247       -1.18743912733231
C           11.09280594675238        3.51915885880254       -1.32022386418504
N           12.03228769160347        4.58442663569539       -1.23814827548512
C           13.26815182244307        4.63098813558118       -0.60821865040543
C           13.72157247817526        3.48208527064463        0.21888861049551
O           13.98386479347823        5.60432729637048       -0.72277378247288
C           11.49042314844932        2.20289902976899       -1.56808554458238
C           10.56901178094063        1.19371412864006       -1.67001067990478
C            9.19847951509604        1.44535183146638       -1.53503632499375
N            8.22300567897005        0.43101247469382       -1.65384410744355
C            8.62525981176632       -0.91155164716771       -2.10862581359326
C            8.97080783102852       -1.83380018963144       -0.94958884935483
C            9.35389939321404       -3.24193909457994       -1.40058297058455
C            9.67213694249275       -4.17619155001794       -0.23561778581855
C           10.04242297097188       -5.58626136994836       -0.67553130933636
C           10.27379930381000       -6.47558401055555        0.51375263609681
O            9.35393573959466       -6.61126516514625        1.29229502723710
O           11.49276442685006       -7.06065478021362        0.64908865692816
H           -0.05247120059332        0.58968290579418        0.51895472691384
H           -0.25011153640390        1.03288183065112       -1.17485032033589
H            0.39665852906273        2.20978694238752       -0.02481867640645
H            2.57279697086325        2.54603622448325       -0.46176024294473
H            3.83762587126419       -0.81968442695512       -1.11637959561190
H            6.18169119291209       -1.34519284442691       -1.53838382253606
H            4.80780613623320        3.29105836363640       -0.69425216855068
H            9.40522429446882        4.78318559099444       -0.99443431850812
H           11.77236433294378        5.45435517777664       -1.68815232069632
H           12.87720777949519        2.90377116488989        0.59118548739025
H           14.28582973230287        3.84634659063935        1.07652769087128
H           14.37463937777280        2.82798264379442       -0.35693775702092
H           12.53648286522691        1.99692566669699       -1.70896438869416
H           10.91232942395845        0.19062743553956       -1.84375597185595
H            9.46794027126084       -0.81903094455788       -2.79851619342984
H            7.82264775446079       -1.33438951408764       -2.71843605879541
H            8.12299528012595       -1.88425114368808       -0.25748177974439
H            9.78430680648043       -1.39585158171639       -0.36063535531047
H           10.21344042060752       -3.19068728076966       -2.07846959371730
H            8.54161097127694       -3.66880926539826       -2.00020367452587
H            8.81265856273298       -4.23071663009394        0.44373807358824
H           10.48437285784284       -3.75682639098189        0.36936654758528
H           10.92709528732824       -5.56747389263306       -1.31816238327784
H            9.23704908625109       -6.01527124485236       -1.27906236198477
H           12.09423566662639       -6.82728627573087       -0.09104795080027
