49
 energy: -9.379859840983 gnorm: 0.000500490212 xtb: 6.6.1 (8d0f1dd)
C            0.36075791954285        0.76021309339322       -1.21358482445418
C            1.73965509564033        0.20906009582416       -1.11127453842216
O            1.88870499220284       -0.95779042920651       -0.81882845386846
N            2.80366100153517        1.06445284184933       -1.35858725744850
C            4.16687191876821        0.71360012670236       -1.31633914378247
C            4.58380613029110       -0.57526154801747       -0.98357102834198
C            5.91144636669155       -0.90972452844855       -0.95255930301149
C            6.90111933150754        0.03175151237491       -1.25913760754198
C            6.48559338988484        1.33688266492189       -1.57741287640345
C            5.13674746213492        1.65590308486329       -1.60593259791036
C            7.46228995197304        2.37450345606754       -1.87501083024163
O            7.10629000177896        3.50270193040702       -2.18205556067704
C            8.87141501355386        2.02351240858302       -1.77860105615552
C            9.83347010758319        3.00170442638269       -1.99999329403326
C           11.16885392352850        2.70784806874291       -1.89811400820594
C           11.56528252304087        1.42262920269171       -1.56605211737746
C           10.63047626706967        0.44212849969331       -1.34808128970877
C            9.26038579476821        0.70939143733330       -1.45701943223890
N            8.27827345568290       -0.28300512278647       -1.26139383138350
C            8.69414117359316       -1.68442933554808       -1.07478654327998
C            8.91583083363486       -2.02713219647050        0.39035781499963
C            9.34364869469895       -3.47699565046106        0.60702127941699
C            9.55690004292570       -3.82319999812662        2.07895788446702
C            9.97336535638419       -5.27067089779015        2.30200459313546
C           10.11214828524892       -5.57192846479904        3.76793260887147
O            9.11519914224813       -5.47695008265180        4.45196281808315
O           11.34107585457217       -5.91588085426286        4.23546283337855
H           -0.15548380204462        0.65800056669123       -0.26011684852277
H           -0.20704827216705        0.21141071613870       -1.96359038945326
H            0.36798798063313        1.81355779771953       -1.49023603203449
H            2.59015072356453        2.02663485046823       -1.60197897704496
H            3.82909468287943       -1.30470850966057       -0.74992802126918
H            6.19010862038231       -1.90821511219513       -0.67032559333930
H            4.85413785070642        2.66127443077739       -1.85977336270853
H            9.50252087698405        3.99576680763914       -2.24970438859139
H           11.90649018873561        3.47405027074275       -2.07034604431240
H           12.61476605343482        1.19460239058941       -1.47763246705425
H           10.96223332547667       -0.54175915473601       -1.07223469979972
H            9.59652559659622       -1.87218891458649       -1.66185239554269
H            7.94432645536332       -2.34259678358637       -1.52073381844908
H            8.00054550824310       -1.82106985687092        0.95639561234997
H            9.66503801249946       -1.35014556233187        0.81560332659279
H           10.26296326579025       -3.67771922419615        0.04487659780770
H            8.59246721958333       -4.14963383177776        0.17716026858235
H            8.63904419130743       -3.62515419473898        2.64582942884130
H           10.30871460615687       -3.15504887091321        2.51490805708626
H           10.90760452870495       -5.48603286636879        1.77609816390373
H            9.22377947500031       -5.94589983165605        1.87889230105755
H           12.01133288167699       -5.93604885841428        3.51802504403874
