50
 energy: -9.620154358818 gnorm: 0.000885287689 xtb: 6.6.1 (8d0f1dd)
C            1.31029583921981        1.08881627340580        3.35460259202950
C            2.37002565372717        0.17928785402687        2.83494796309456
O            2.04124333803967       -0.83326478736922        2.25735554115704
N            3.69509358071971        0.54762848009013        3.04698682010062
C            4.83393359932051       -0.09423538813953        2.52274697495523
C            4.66900242733783       -1.24495548078710        1.75980634208381
C            5.73168536645055       -1.88293027319535        1.17131056310764
C            6.99534734862457       -1.37001999427852        1.31053610033837
C            7.23998110343172       -0.21039204419939        2.05168623027592
C            6.12897391874596        0.43424896122617        2.71648045989913
C            6.18134434702096        1.58234346056035        3.55086756780955
C            6.26354764433123        2.58600246251867        4.25982299011769
C            6.35247265793481        3.75163346558025        5.07261687088373
C            7.47316016025658        4.64763018186728        5.24971383232064
C            7.29900833036291        5.77521565233529        6.05700212521434
C            6.11526267779364        6.02834427302096        6.70454222483379
C            5.06409386221453        5.15073901782793        6.58397335275336
C            5.17675878896210        4.01735813036478        5.79184825656292
C            4.04584053108156        3.04931785945555        5.73678700947520
O            3.32356111101063        2.99193955931131        4.75493063308977
N            3.87122043076771        2.17713764486417        6.80959770101420
C            4.89217680025574        2.05615729939308        7.84723825169380
C            2.85079873787155        1.15233834775446        6.71303224505651
O            8.77314435379296        4.51148929373971        4.71137595760776
C            8.74561258853117        3.31469270419966        3.97471580108279
C            9.72293550016350        2.44779362089940        3.13209031438279
C            8.64632238649799        1.39221366574273        2.75805503749335
O            8.59449369456095        0.19661039556964        2.02679705115923
H            0.57557124992175        1.28524828563523        2.57602242902887
H            1.72551267974668        2.04194395140415        3.67926263882400
H            0.79369069060419        0.62836406656347        4.19438160941498
H            3.81572427786042        1.38696747606317        3.61733741853291
H            3.67328509935137       -1.62698697038882        1.62850398516087
H            5.57097576374839       -2.77419233884263        0.58716813717187
H            7.83373420147295       -1.84577828849529        0.83328422990602
H            8.13367329992480        6.44451032823474        6.16704740544112
H            6.01454463201172        6.90797231334217        7.31893350566148
H            4.13893035038574        5.33216194081381        7.10334187768988
H            5.12779741120539        3.03406181722122        8.25994990576305
H            5.79706099589377        1.62530046018869        7.42458409582042
H            4.54463572173675        1.41675555138099        8.65504503513908
H            1.97013772118063        1.56803846097026        6.22903446687067
H            2.56922920982847        0.79228801994499        7.70006614746766
H            3.21985213065217        0.31930153070972        6.11828100394285
H            7.92670857072766        3.55055443586055        3.27495296844646
H            8.38129226649416        2.62094650119347        4.75024123456632
H           10.54764821163542        2.03371701967190        3.71811405163231
H           10.12980023342853        2.97501947824016        2.26516640779207
H            7.86725864015413        1.97423805081459        2.23898982833504
H            8.25908986306223        1.03883727370518        3.72734480780736
