46
 energy: -9.691872515289 gnorm: 0.000966004613 xtb: 6.6.1 (8d0f1dd)
C            1.30586942082786       -1.06550385068744        0.07213052272324
C            2.78496334284297       -0.97078774180823       -0.07947424234405
O            3.50519222887462       -1.45442851545244        0.76482388313927
O            3.24433545895356       -0.33308467847064       -1.19069998993632
C            4.64918098315155       -0.29733504553982       -1.16521351131058
C            5.24725695684777       -0.01490369689941       -2.52784220202351
N            6.69791262499945       -0.05301094465692       -2.50384916736167
C            7.37704194297134        0.74809614386407       -1.57858371225097
O            6.77623209940237        1.45644389700464       -0.79206004601952
C            8.84102769651489        0.70596676216213       -1.58361270190740
C            9.56240556550681        1.48329695794361       -0.71087582879671
C           10.95179508986491        1.46554187802570       -0.72737657003321
C           11.62400152301436        0.66281281717866       -1.60702079394871
C           10.93125367351147       -0.16595886428835       -2.50151548822955
C           11.60962145898513       -1.02256179866362       -3.43141968589268
O           13.00621319626462       -1.13893375007626       -3.45539491439955
C           13.69746424292195       -1.43941662234367       -2.27073955456740
C           13.09111357099150       -2.08964099938470       -1.19669654729599
C           13.79950070801859       -2.36009248455615       -0.05300001341977
C           15.13681746979097       -1.99583665296683        0.05609555733164
C           15.85866637428925       -2.26424877370721        1.22675734014474
N           16.45849922930597       -2.48287998264478        2.19700582708829
C           15.74789453252950       -1.35998792370850       -1.01878144869851
C           15.04218866031131       -1.08985720637158       -2.16412443328319
C           10.85506535582261       -1.74853925508552       -4.34429942770690
C            9.47610083269738       -1.69821941920588       -4.34136452902371
C            8.79518447495428       -0.91308487300470       -3.43534858376442
C            9.51886050736791       -0.12996397850809       -2.50419819598233
C            7.33682012525763       -0.87481581854773       -3.43912662626825
O            6.69034386022062       -1.53774879851734       -4.23103168876239
H            0.98915187582362       -0.57920230471305        0.99344058639649
H            0.99604676353168       -2.10872932677990        0.11231084104678
H            0.80535574014080       -0.58398904757749       -0.76677999637332
H            5.00553841162800       -1.25981941773390       -0.77364680619361
H            4.94925902861586        0.47568063270925       -0.44404154472894
H            4.92992817711500        0.96758431036984       -2.88908757025580
H            4.89804341417131       -0.75811241960733       -3.25281434281295
H            9.02582511599371        2.11474248672091       -0.02251884837033
H           11.50012612129391        2.09359686570564       -0.04497584245569
H           12.69916103408015        0.66834082340227       -1.63051257887871
H           12.05953616069282       -2.38148792856251       -1.28072543113164
H           13.32720385487982       -2.86021699499540        0.77545135871382
H           16.78544049723370       -1.08304573113926       -0.93905081026525
H           15.51101051434111       -0.59967746543963       -2.99901292283027
H           11.37581967909760       -2.37107302400723       -5.04983869928032
H            8.90260040433552       -2.27525823943435       -5.04766061977844
