53
 energy: -10.057416514648 gnorm: 0.000909762957 xtb: 6.6.1 (8d0f1dd)
C            1.69531069575462        0.99211078857344        0.04448937609074
C            3.03589771022151        0.34175094307057       -0.01835980187621
O            3.87371415148984        0.61189032383765        0.81413398194274
O            3.23966355413465       -0.52339930433599       -1.05110468836552
C            4.54099966053559       -1.02899470680935       -0.98164716848972
C            4.86022362343806       -1.94832567079596       -2.15691443185671
O            4.95601523721163       -1.21663574859084       -3.39514872498831
C            4.04444278281437       -1.75579239577856       -4.36581211416251
N            2.90868262501722       -0.86660027053924       -4.63747633771944
C            2.24666837613245       -0.05869095838389       -3.73853758037673
N            1.28842105082729        0.62160876821261       -4.30930592763194
C            1.30244344442384        0.27158861705454       -5.62331784793747
C            2.31517196644001       -0.66848531496805       -5.86065083679914
N            2.60855151158407       -1.22597613053284       -7.06376340102375
C            1.84720974249567       -0.80182194813424       -8.01996266860377
N            0.82159099786390        0.12206583100586       -7.91514991007120
C            0.07231548701048        0.47814266240679       -9.12375116107518
C           -0.99376740746200        1.48003820875936       -8.86288100240936
C           -1.77958815842569        1.93525629372543       -9.86830367715328
N           -2.75213108955687        2.85880048058511       -9.60858895503335
C           -3.59509493115919        3.34192464516604      -10.70393443992585
C           -2.92618616865815        3.30834087791201       -8.31743468923838
C           -3.97957263123934        4.30921876899595       -8.02504129361146
N           -2.19152946299417        2.90214125526760       -7.31709526086611
C           -1.21276885549068        1.98584895027390       -7.55990079130085
N           -0.47172618979229        1.59537920380830       -6.50452959201336
C            0.49422682865483        0.70773119753368       -6.70837144346531
C            3.58753218437556       -3.14271630923873       -3.85999885413323
O            4.35200905479914       -4.18633337496519       -4.41304031993307
C            3.80037922541124       -3.06892537185579       -2.33072703520869
O            4.27031400737660       -4.30410249647702       -1.82124405301364
H            1.35517736225926        1.05233794769030        1.07698924790323
H            0.96443911266164        0.42485237980389       -0.52980536356456
H            1.74428779940113        2.00178901124536       -0.35987823277492
H            4.62999858964997       -1.55772066177621       -0.02374276489889
H            5.22219105884233       -0.16879466459277       -0.96493407778759
H            5.84325616069627       -2.42201500599179       -2.01525933220300
H            4.60862277943520       -1.86833040957061       -5.30044049397237
H            2.48598678330127        0.00012889643816       -2.68851597734934
H            2.03659258615284       -1.20821789709687       -8.99945052658288
H           -0.36635860673767       -0.43382096668597       -9.53912592483529
H            0.77659390721738        0.86720965330854       -9.86488905014755
H           -1.64523844931699        1.57645375083874      -10.87213022733167
H           -3.23339424816005        2.96862907331725      -11.65934510661481
H           -3.58357154883283        4.42898391351021      -10.73691939447824
H           -4.61827183422983        2.99952202139074      -10.56635124600258
H           -4.94768439301249        3.98435459646048       -8.40513312048168
H           -3.73460533953183        5.27362485545835       -8.46948163000987
H           -4.07299988750109        4.45067270031965       -6.94829583032438
H            2.53627206051229       -3.32547247063416       -4.12623598542852
H            5.29639912967914       -4.03572848036000       -4.19866021148499
H            2.87631769940199       -2.79512481080087       -1.79940665310400
H            3.98518025486972       -5.02959124705495       -2.42251744826785
