45
 energy: -7.793689346824 gnorm: 0.000615442242 xtb: 6.6.1 (8d0f1dd)
C           11.63246022016609       -3.93410366220991       -0.69565770070180
C           10.44757870609702       -4.15501324865821       -1.57129541960226
O           10.22792768154620       -3.39691973129926       -2.48965040846792
O            9.66099215929666       -5.22484801218079       -1.27310798048634
C            8.61218950815396       -5.28326464987725       -2.19123302062959
C            7.60532794520392       -6.37530477500818       -1.85543655962117
O            7.01288423231595       -6.17747575599925       -0.55756728106753
C            5.58270833842815       -6.34772331577829       -0.63821042562342
C            4.85906914905627       -4.99649558902173       -0.41224472363209
C            5.56186381386490       -3.90257797239327       -1.16671832333468
C            5.13360035998114       -3.46164473487328       -2.34686218366118
Br           6.25027571819112       -2.28092670970396       -3.29263882500304
C            3.86944940162752       -3.89097899769802       -2.88629523943084
S            3.40472546000530       -3.45391652025697       -4.39621713894767
N            3.06073613512987       -4.65073714839440       -2.09274114431762
C            3.40583744524160       -5.11553415071036       -0.81953707683931
O            2.59943032937219       -5.62581889796870       -0.08083430237061
C            5.28001561747067       -6.97996507423508       -2.02706560955854
O            5.27795641725263       -8.39951063448509       -1.87987977940116
C            4.82790688539444       -9.17291254282372       -2.92380655186148
C            4.42486758987581       -8.59899294656508       -4.24413325428475
O            4.75309286887563      -10.38002681079701       -2.83277466412293
C            6.45596855473587       -6.46524649719625       -2.88694378527069
O            6.75822091040394       -7.32489594650129       -3.99075674712370
C            6.80509324725225       -6.74884610925726       -5.25690988120538
C            7.39100037144972       -5.39133557215623       -5.48692769934151
O            6.40586913245633       -7.34749438799254       -6.23453493244931
H           12.54505650568016       -3.92808361105587       -1.28980698641948
H           11.70606176454895       -4.72420208955307        0.05057321890468
H           11.55071341240755       -2.97658902742409       -0.18361337903441
H            9.05515566445266       -5.44128643126450       -3.18194507171314
H            8.12973888708549       -4.29935083035700       -2.18919290911433
H            8.11315726728462       -7.35064534088300       -1.80236437155688
H            5.30528235270256       -7.07988430760591        0.13678078384502
H            4.88806061870495       -4.75954865680176        0.66176409790716
H            6.50528322588308       -3.54256399280763       -0.78601363540403
H            2.11229596916831       -4.84571926325672       -2.39389461264324
H            4.29327991053575       -6.66279715902459       -2.38300177219603
H            4.06155117417843       -7.57749955896576       -4.16767415451907
H            3.63844103130700       -9.20991419937314       -4.68539104002084
H            5.27869312614869       -8.61173223142794       -4.92371928860290
H            6.20721026174449       -5.47163078605187       -3.26937359130197
H            7.17381248423792       -4.68451344764375       -4.69082739102508
H            6.99281717290607       -4.97929857848160       -6.41318455593700
H            8.47187097218222       -5.46280009398565       -5.59822468281255
