45
 energy: -7.798954635943 gnorm: 0.000784991477 xtb: 6.6.1 (8d0f1dd)
C            9.80878669152383       -9.37164990000944        7.03215134650397
C            9.49996035230012       -7.92333883570418        7.20671581572025
O           10.23843640425920       -7.08868533937435        6.73510361320222
O            8.35025999826489       -7.63696713734385        7.87811117483409
C            8.05305667241376       -6.26382603993231        7.80667505303713
C            7.14007907262087       -5.94715844500657        6.62156488669374
O            6.67855718818893       -4.57942767805019        6.64915002849354
C            6.70757569146936       -4.03521831775499        5.31455305473648
C            5.42336190503028       -3.24683843529832        4.99171299814949
C            4.19148753272469       -4.02243411795599        5.35141406245627
C            3.15976774758074       -4.22145016752856        4.52824967057083
Cl           1.79417461852820       -5.14397614367049        5.12869196240655
C            3.19141145564622       -3.69236182754963        3.18182319406910
S            1.93664722614115       -3.90100100528123        2.14965469263877
N            4.30273808665622       -3.02337963655535        2.77207613999532
C            5.44742408352803       -2.80939673580804        3.54224243079305
O            6.44073498473768       -2.30346482195175        3.07823899309865
C            6.97044747771821       -5.22806891469090        4.34187371520034
O            5.69896789591327       -5.79199899922859        3.99693320984112
C            5.57657624925868       -6.59141707338112        2.88368563744201
C            6.75857416359930       -7.16330393513111        2.17734069928236
O            4.48835854580947       -6.89516755777255        2.44128379283908
C            7.79466439094374       -6.18261532014833        5.23799116886062
O            7.74276036259133       -7.54691887712332        4.82016417344192
C            8.85228197916873       -8.02341841538393        4.15839981035583
C           10.02228233589942       -7.14785752988423        3.83669761740992
O            8.92968090783746       -9.18179713168383        3.80548732361521
H           10.87522637401073       -9.55019874236348        7.15734909335619
H            9.51564659383768       -9.70121495002439        6.03492850514466
H            9.26358663540674       -9.96588502811893        7.76375441592854
H            8.99162232273821       -5.70031274889376        7.74105414419736
H            7.56377774202128       -5.98696695434817        8.74788033703559
H            6.24192698017721       -6.58153550307375        6.67390221206945
H            7.56845737836223       -3.34892830162649        5.28176636499807
H            5.42062220339254       -2.33194697106357        5.60412240980474
H            4.17345070662600       -4.50346087039947        6.31589613647598
H            4.35310653351187       -2.69913069997595        1.81162656667066
H            7.48781825684261       -4.89745237254204        3.43152878306607
H            7.60825980979999       -6.48644422875255        2.17230771540349
H            6.49536156390600       -7.38224537595828        1.14348183248731
H            7.05118081802105       -8.10047257546005        2.65155858241007
H            8.84046689240760       -5.86154803324033        5.31324081026391
H            9.71385196891032       -6.19594203086875        3.40871348727972
H           10.65765489930682       -7.64853518207465        3.10778130809306
H           10.62440830037000       -6.96406109200941        4.72576102961436
