45
 energy: -7.759766541601 gnorm: 0.000604237662 xtb: 6.6.1 (8d0f1dd)
C           12.06145058881112       -4.54214074304655        0.04289114874094
C           10.90324415813900       -4.73446393585322       -0.87427681416372
O           10.79043798302892       -4.03426390880821       -1.85575218914832
O           10.01541972997632       -5.70958270662626       -0.53822684073341
C            9.00644838256703       -5.75199494558532       -1.50123862869587
C            7.90662081586683       -6.74363765823457       -1.14739375656559
O            7.25519942431984       -6.39620388179025        0.08870244013490
C            5.82467228620239       -6.49739879642725       -0.06383791914627
C            5.16338790257534       -5.10032670495487        0.02788524270694
C            5.92977933894731       -4.10098943630799       -0.78195232078272
C            5.61247959027326       -3.71519500688695       -2.03872765142270
F            6.49224965524432       -2.86095752128094       -2.81673271481080
C            4.32417828678249       -4.19977351887799       -2.56978338555993
S            3.89157508288201       -3.97234969859748       -4.13478058849358
N            3.45491405077501       -4.82942565621903       -1.73135855567050
C            3.72191770325363       -5.18251879165147       -0.40771089456383
O            2.86350418657139       -5.57160971034699        0.34609622102678
C            5.56002199649535       -7.21433775996945       -1.41821978122629
O            5.45008290066254       -8.61488254766246       -1.16774243298590
C            4.99554759866585       -9.43306550942881       -2.17510334186644
C            4.71148868297098       -8.93787806846550       -3.55666528174692
O            4.81975337951112      -10.61979451981396       -1.99679204622349
C            6.81597598371563       -6.84717372722104       -2.24021738914177
O            7.12264639383939       -7.81969589670694       -3.24536701276815
C            7.28333038214537       -7.36413563538995       -4.55129191942509
C            7.99288041929596       -6.08350609292998       -4.85873226214276
O            6.88701644157534       -8.01288515277826       -5.49763284783854
H           12.99639213570725       -4.60733745085669       -0.51105210663486
H           12.06144181428403       -5.30472603181758        0.82003985786327
H           12.01101705021081       -3.56271512664251        0.51488482746158
H            9.48036678726319       -6.00724696210674       -2.45672074855936
H            8.59775170290161       -4.73838041321981       -1.58227731567763
H            8.34068620814217       -7.74192866404690       -0.98306092096964
H            5.46638563247152       -7.15574416256652        0.74366390787356
H            5.17414694511016       -4.78216227485763        1.08153040121152
H            6.85192196516650       -3.73539800671867       -0.36339492490850
H            2.51271904752102       -5.02258478006697       -2.05482521199001
H            4.61891552241581       -6.86260841264850       -1.85571187119885
H            4.43604871535557       -7.88683896695206       -3.58124031615823
H            3.89804297517013       -9.51525290852499       -3.99398006838936
H            5.59460603501320       -9.07705502187789       -4.18245531906648
H            6.65887868214020       -5.87672962411194       -2.71999630890530
H            7.84725817867242       -5.31517659420283       -4.10443550138906
H            7.63360217583144       -5.68994869687870       -5.80856949170333
H            9.06179508153005       -6.26428837003395       -4.96203736634744
