45
 energy: -7.821500326233 gnorm: 0.000473751678 xtb: 6.6.1 (8d0f1dd)
C            4.33024226353770        3.37040782256608        3.10819569289257
C            3.60464112649663        4.68448848480836        2.95737340024797
O            2.84017353955999        5.05289702886250        3.83114080857374
O            3.87477746235128        5.41029627948484        1.81391274680321
C            3.44590350057727        6.75415196159028        1.91234079945346
C            2.69136519321806        7.22370492330400        0.67095074137693
O            3.46144975468142        7.01204430727604       -0.52928641210416
C            2.61955652645283        6.46356785413618       -1.56648756376397
C            3.01395512263264        5.00545202652590       -1.89908333701805
C            3.08129667209267        4.21234096424745       -0.62158956629114
C            2.04493953382770        3.48728482317966       -0.21335498316706
I            1.92988043599662        2.90974717267200        1.74428383591291
C            0.92635248108499        3.19437433132259       -1.05360592049225
S           -0.35565673822132        2.34746752011330       -0.45662311621622
N            0.97971283424168        3.63228274291705       -2.34810387486055
C            2.01761987047829        4.41001494575459       -2.87581425665959
O            2.11331871217785        4.63355467560077       -4.05784753341880
C            1.15400638115609        6.57976448798234       -1.05963620371059
O            0.63847801773028        7.83516581714242       -1.50407394480068
C           -0.71086010363173        8.07674900471974       -1.40032132406518
C           -1.65799009611930        7.12363209701363       -0.74827714840162
O           -1.20482654897902        9.10158070013276       -1.82104851222598
C            1.33258987410859        6.51655525255823        0.47665594984498
O            0.25035912885860        7.12545958919151        1.18783172305742
C           -0.50895777890467        6.28422885925138        1.99005305857969
C            0.11165485115221        5.11705526005251        2.68966854742360
O           -1.69819404378780        6.45709818384255        2.15609313207969
H            4.70951264003903        3.26749549835919        4.13000849089957
H            5.17724835012444        3.31712514137646        2.41654771918648
H            3.64172069987136        2.50478220007143        2.90191076508188
H            4.35497479420846        7.35118953021581        2.05014341549363
H            2.83111213788434        6.86768374949702        2.81341605306406
H            2.49815746983151        8.30772629198682        0.71730407747358
H            2.73562707751391        7.11376682147772       -2.44774673106759
H            4.00333873581786        5.00766665570667       -2.37857455677856
H            3.88458111147178        4.42584805268281        0.06810028712523
H            0.26242839043899        3.34230255553325       -3.00259833599679
H            0.54006610616070        5.77418032490299       -1.47739406250109
H           -1.31627361456412        6.09270578838514       -0.78709653607979
H           -2.63011909970465        7.17989905278961       -1.23611906133965
H           -1.79277968521665        7.40393316614421        0.29744594808702
H            1.42517720038207        5.47875505949858        0.80299672346233
H            0.34463246013043        4.27921317452031        1.98279591695685
H           -0.58463599619253        4.73348988774735        3.43754189302550
H            1.01843324902977        5.42113993285411        3.21210125485929
