57
 energy: -10.778727384213 gnorm: 0.000870291747 xtb: 6.6.1 (8d0f1dd)
C            2.63320990225036       -0.36318159111460        2.26746540541759
C            3.91310288936605        0.03674997948214        1.61515336302550
O            4.34877993485543        1.14470626102277        1.83056613914165
O            4.46903461701514       -0.91545155601599        0.82802547964227
B            5.60376983311903       -0.86698418039958       -0.11686241117020
O            5.11035032967910       -0.83872383066162       -1.49777884744309
C            5.89442171474698       -0.86382836509990       -2.59847080035005
C            7.37230786475897       -0.86230220939471       -2.39947962641103
O            5.46887975745838       -0.90708120441726       -3.73209715335182
O            6.42507507159272       -2.07520001001342        0.09508408123251
C            7.20857685531296       -2.09464732546472        1.18787901168737
C            7.70220779524352       -3.35851985388680        1.64511459858519
C            7.37425732061852       -4.49186258614620        1.00433331647093
C            7.80521356447044       -5.82723645674777        1.35174544656863
C            7.38961189384309       -6.90864866441816        0.57258492167300
C            7.78371686474834       -8.19121973930978        0.87509356822182
C            8.60036591368101       -8.44606432946334        1.96736522361875
C            9.04643497118691       -9.83187891520493        2.27570459165434
C            9.02460076346523       -7.37472899406699        2.74061823417862
C            8.63447855717109       -6.08901066873127        2.44414226611332
C            7.53856728326423       -0.91600259356886        1.84289343115063
C            7.15045223410710        0.30232769914315        1.30057243740189
C            7.47890454454306        1.56911166766815        1.89279523897666
C            8.24137034348706        1.75698172975818        2.98577361893279
C            8.51661195380562        3.03900176413227        3.59631437908734
C            9.39606946534774        3.11327943454724        4.67843943415774
C            9.67636617484492        4.31692757267847        5.28236660317105
C            9.09463049683674        5.49277396744174        4.83050287679997
C            9.37616515041569        6.79151335696585        5.50030784159184
C            8.20911719747387        5.42492248719020        3.76474769305026
C            7.92423458774757        4.22475003634749        3.15538010358482
O            6.42609372459353        0.32108216459968        0.16305553357855
H            1.81713240542240        0.26198694488889        1.90905316256726
H            2.70519052123291       -0.24861859981073        3.34764421370861
H            2.40100841750682       -1.40241434942045        2.03990712113548
H            7.62842379126340       -0.47635568510315       -1.41463851760718
H            7.85160208818350       -0.23862878912941       -3.15201822422721
H            7.76634628467219       -1.87330607065018       -2.48678494004704
H            8.33970744810282       -3.37934755588319        2.50850779867130
H            6.72751036113972       -4.39314410579407        0.14965989539469
H            6.75347838385148       -6.72731607136787       -0.27656743309188
H            7.45950388091457       -9.01343764478610        0.26047060280159
H            8.28732531741253      -10.56124126967640        1.99156761581971
H            9.24048273773269       -9.95497114304577        3.34158543654343
H            9.96294744329013      -10.07210921218140        1.73614173400046
H            9.66913689039619       -7.56110719873512        3.58251112222818
H            8.97352751406831       -5.27685293479142        3.06138041787556
H            8.12686226962930       -0.95608923485007        2.73890072207451
H            7.02851969874157        2.41571197094504        1.40974428714879
H            8.68699224449786        0.89922162912684        3.45451568398452
H            9.85750048796601        2.21057617262638        5.03985281843137
H           10.35322216521294        4.35542829370819        6.11857850331840
H           10.33834060359554        6.77087111459222        6.01281901140863
H            8.60662216388647        7.02097012948290        6.23785048087164
H            9.40432779845252        7.60715888405421        4.77718577312086
H            7.73869153502233        6.32931705649648        3.41854838847836
H            7.22426797678355        4.20170262245016        2.33992832540141
