63
 energy: -12.651492143921 gnorm: 0.000975804958 xtb: 6.6.1 (8d0f1dd)
C            2.80639384491040       -0.43483168833421       -2.82637579818438
C            4.00486028894896       -0.76177221427511       -2.00201793973181
O            4.43627784609118       -1.89206510888760       -2.02949179914432
O            4.49818647629507        0.27771669508843       -1.28513000919840
B            5.52510927095334        0.34026393314012       -0.22511088688779
O            4.88768056297693        0.50429813634625        1.08540914152768
C            5.56997785508079        0.58358744522343        2.24800158724999
C            7.05329402288107        0.43968153966858        2.17588007607602
O            5.05305815609090        0.76325086812836        3.32945742950277
O            6.39963763757969        1.49709929140013       -0.50175028046840
C            7.30112803800261        1.35952927302634       -1.48994047221625
C            7.88409589856035        2.54494937086421       -2.04080453187163
C            7.52126593190033        3.75246342604893       -1.57357727218730
C            8.01852136276221        5.03275574323286       -2.01324642839087
C            8.92253329015046        5.11965404439930       -3.05897677565937
C            9.41773099052061        6.33970339049775       -3.50094064901400
C            9.02308042451720        7.50347356830176       -2.90950529343989
C            8.10611624525317        7.48900651137409       -1.84003728528780
C            7.69294923683677        8.68791750834807       -1.21967927435589
C            6.80870291460901        8.66777788313996       -0.18441820216859
C            6.29861915272741        7.45467083886049        0.27722778081385
C            6.67718405526503        6.27783719235712       -0.30083765850128
C            7.59015328090177        6.25024282375970       -1.37704746233209
C            7.66402476830352        0.09978327791103       -1.94658903890847
C            7.18039987822914       -1.02961990975052       -1.29760431941440
C            7.52894812923757       -2.36858941073666       -1.68276124419970
C            8.42608747671075       -2.71069828750413       -2.62891424538522
C            8.70039085803658       -4.06484740836847       -3.05204832926313
C            7.81745438469417       -5.08861298215973       -2.74775463040595
C            8.04154277410811       -6.39613266990783       -3.15861141915971
C            9.15028743085470       -6.71425479091117       -3.88671722805060
C           10.08863741291299       -5.72198849694437       -4.23461153139501
C           11.24052791006206       -6.03898868456855       -4.98686286696811
C           12.14857242987678       -5.07648063844971       -5.30861399451096
C           11.95193275177679       -3.75989927623541       -4.89220270762368
C           10.84815184136274       -3.41994704766754       -4.16492318168959
C            9.87642462699354       -4.38215173753460       -3.81746695760019
O            6.33631169788844       -0.88798553316394       -0.25586831730552
H            1.93103389010412       -0.95371895714040       -2.43906305066287
H            2.96018131429431       -0.74202077209042       -3.85941169443693
H            2.61196831670863        0.63640348257370       -2.80485866850868
H            7.31716755155866       -0.54099299722047        1.78211962901601
H            7.49160459674785        0.54926167796251        3.16663137065922
H            7.47663023735980        1.19783490426604        1.51861595590911
H            8.61499169111601        2.44514045721889       -2.82031974112518
H            6.78276282847018        3.73976562836988       -0.79360445581675
H            9.25032840048039        4.22182949230390       -3.55048145264558
H           10.11929340289590        6.36529509791274       -4.31866586171905
H            9.40934774355853        8.44688407570154       -3.25422019078992
H            8.08874002704458        9.62266620484466       -1.57700059318461
H            6.50095377729656        9.58938686417967        0.28165247526587
H            5.60002027788075        7.44976498295125        1.09768731282429
H            6.26792087490482        5.36036028694392        0.07960929264340
H            8.34785605037706        0.01207817364064       -2.76823218932766
H            6.99370825960896       -3.13705621085636       -1.15699393381273
H            8.96523940276611       -1.92177338977144       -3.11623207449001
H            6.91374787105775       -4.86340816098783       -2.21022796253568
H            7.32815033344191       -7.16315702616686       -2.90488752438317
H            9.31917844031957       -7.72817383319600       -4.20504641066645
H           11.39290905524270       -7.05620347986212       -5.30311596715124
H           13.02448069148898       -5.33066673220402       -5.88269422423938
H           12.68126501276479       -3.00830333874340       -5.14578447670578
H           10.72938879761869       -2.40204330635716       -3.84207354836509
