51
 energy: -9.879530531473 gnorm: 0.000460525753 xtb: 6.6.1 (8d0f1dd)
C            2.34645716321730       -1.13282683295556        1.64731968433328
C            3.79944808471352       -1.11632433273503        1.31507761181760
O            4.60365880348421       -1.20725315481698        2.21369535819863
O            4.07817443880145       -1.00361811704946       -0.00281783641692
B            5.38411132757784       -0.93998447847993       -0.67042378116977
O            5.19458696239361       -0.85649431420941       -2.12565825132341
C            6.18739647767379       -0.75165950459784       -3.03519790942968
C            7.58386709993700       -0.68792170624481       -2.51586030939260
O            6.00874291900923       -0.70056094607128       -4.23261857538390
O            6.15252692431069       -2.15775686450840       -0.35979980014733
C            6.97480597526341       -2.19350366917484        0.70172063486222
C            7.44923255399405       -3.47011797312496        1.14145952638455
C            7.05292337133366       -4.59324499809647        0.52196250236553
C            7.44611124981132       -5.94258581005703        0.85878193542000
C            6.94956206424877       -7.01050529074082        0.10717363503000
C            7.30544497055713       -8.30637723295734        0.39996914998336
C            8.16335885651611       -8.56930647089431        1.44839282290851
C            8.66437798833849       -7.52906926507778        2.20450397960773
C            8.31248444533766       -6.23053433118124        1.91639002370292
C            7.35828302492335       -1.02599159980964        1.34388787050265
C            6.92160621184571        0.20265098815396        0.86878204574491
C            7.30842142782544        1.45281104815180        1.46068310458528
C            8.08887777958855        1.60268862594075        2.54697208640787
C            8.46399994117794        2.86922455816636        3.13596914931732
C            9.27118148772037        2.88483954435726        4.27657174605097
C            9.64870989633358        4.07173618363524        4.86019357793444
C            9.23148743151731        5.27198673398678        4.32241074338226
C            8.43294629312149        5.28032013109979        3.19704228502479
C            8.05184113481684        4.09646003046401        2.60867631250047
O            6.10810568213177        0.25717751546096       -0.20250589947105
H            2.12115113959184       -0.37561833155268        2.39633085331619
H            2.05882344543574       -2.10522108989208        2.04324430487268
H            1.75355589042320       -0.93078126445061        0.75647347601518
H            7.78052467751636       -1.52690569713598       -1.85046976752243
H            7.73872105993275        0.23638127287763       -1.96129084778642
H            8.29431495361545       -0.72326211292052       -3.34000193269308
H            8.11706698046422       -3.50968535799060        1.98087718114426
H            6.37107932155888       -4.47352246935530       -0.30233964290119
H            6.27971436439546       -6.80779104307095       -0.71066896195982
H            6.91362306426069       -9.11823340219960       -0.19053853205031
H            8.44107026281640       -9.58502483909659        1.67653751491216
H            9.33336626397388       -7.73536903799261        3.02379832883650
H            8.70830828608512       -5.42911754023119        2.51357052354063
H            7.99889973377791       -1.08586062011548        2.20197506713224
H            6.90662584397400        2.32305477440345        0.97771185608324
H            8.46520243964786        0.72236987045646        3.03394344942148
H            9.59710709168754        1.95032917867755        4.69951949943073
H           10.27141065051265        4.06464995813648        5.73967272491661
H            9.52824605131183        6.20104368543033        4.78030133252137
H            8.10659495393697        6.21802134924087        2.77792450884523
H            7.42948153755810        4.12110425014830        1.73274564059311
