47
 energy: -10.467123353561 gnorm: 0.000574380757 xtb: 6.6.1 (8d0f1dd)
C            3.04606455785938        0.37632823620341        0.86330094013863
C            2.35385669431629       -0.27594275724406       -0.25792559418926
O            1.25578253925802       -0.74703679369526       -0.22368920305084
B            3.16223013585380       -0.36956580110321       -1.65538547164256
C            2.22047050395200        0.15956854170241       -2.85542586895585
C            1.12905158327580       -0.76340497700055       -3.19720817768544
O            2.44710860351212        1.20663052397214       -3.38266052260718
O            3.50256278174606       -1.79079131956890       -1.91873927615204
C            4.47990660523547       -2.02223835842437       -2.84605586450669
C            4.52781348749231       -3.33443116274361       -3.45467311197766
C            5.50283485555181       -3.72135328771530       -4.38818663673812
C            5.49317435231689       -4.98611288004078       -4.92947546475058
C            4.51871304734814       -5.89789644690062       -4.56068619599158
C            3.54873654865172       -5.53645386731985       -3.64189211602745
C            3.55361546545775       -4.27398738449149       -3.09676316919451
C            5.37876293070771       -1.01790173211967       -3.16248404661645
C            5.35049150111218        0.21339212386663       -2.52010766706009
C            6.32858392509834        1.24189934484703       -2.76960218401008
C            6.16730128580586        2.49061871981842       -2.12596098289000
C            7.05686974155254        3.50507494554667       -2.30190222287813
C            8.18529659807000        3.33980444359538       -3.14492286835642
C            9.12618200805539        4.36334144394036       -3.34998633563373
C           10.20727616462548        4.16697690886238       -4.17360596941581
C           10.39025125179310        2.94520254994546       -4.82220591859651
C            9.49460403789885        1.92521532383155       -4.64693670863519
C            8.36802524646448        2.09066385718032       -3.80639854238358
C            7.43327761403101        1.06565157708593       -3.60517557227393
O            4.37964106420754        0.47433871182110       -1.59632843972484
H            3.24572888050817       -0.34058084066285        1.65987081301693
H            2.43639063553336        1.18239940393058        1.27187408209088
H            3.99661709974185        0.79944287793524        0.53712487439674
H            1.04554546645175       -1.54478625992367       -2.44044975785186
H            1.31182255873333       -1.23556149552788       -4.16258369056770
H            0.17947675207604       -0.23058563435966       -3.24580925748542
H            6.26944439269799       -3.02731768091279       -4.68312419670828
H            6.24913603137555       -5.27046893808843       -5.64463768422069
H            4.51592330035478       -6.88853467354852       -4.98777800397401
H            2.78916121366081       -6.24563938916514       -3.35303167578124
H            2.80433713491517       -3.98366647849029       -2.38000120854298
H            6.12917754876259       -1.20287425679144       -3.90374958202773
H            5.30575397054954        2.62198494829055       -1.49371705495151
H            6.91251855415815        4.44860993233511       -1.80338498775093
H            8.98755585453175        5.30759587322907       -2.85057689400581
H           10.92110765364518        4.96201062558436       -4.32187041476369
H           11.24431430249422        2.80573969564760       -5.46623681101197
H            9.63709320109029        0.98262484364698       -5.14831966163228
H            7.59136031746974        0.12749696301775       -4.10264569642219
