41
 energy: -7.977086530410 gnorm: 0.000497137184 xtb: 6.6.1 (8d0f1dd)
C            1.12817537250825       -0.19564034159350        0.75424045891315
C            2.52302110700242       -0.21932165968047        0.29689514580283
O            3.00086081509182       -1.02652147954912       -0.44126787489798
B            3.40738939451662        0.98216561963745        0.91538900263965
C            4.89423000056965        1.10696396037910        0.28951700196377
C            5.37269105704257        0.32867184444684       -0.86247384265875
O            5.55571480703726        1.90702391521767        0.87616054653644
O            3.55890043257592        0.71970653951556        2.36141039851004
C            3.71554657463601        1.76908886036705        3.17796424592017
C            4.20918048993034        1.49730190546581        4.52645293777803
C            4.25801841967324        2.45985851371090        5.53596390332208
C            4.73353455637266        2.13838306260001        6.78639995000360
C            5.16842626452422        0.85663327027702        7.05758493993551
C            5.12537116117581       -0.10758596938894        6.07135726791498
C            4.64987058291364        0.21019146498293        4.82076296539367
C            3.41075434629010        3.04898654618904        2.74146905485919
C            2.88244673215099        3.27331681567802        1.47946787677623
C            2.47910240895147        4.60222640708490        1.02392791084285
C            2.06753040326148        4.75125688161694       -0.29753755550612
C            1.67624474454605        5.97621517212628       -0.78496184106400
C            1.68649412304408        7.08153938759895        0.04091590636354
C            2.08893094364751        6.95442504394873        1.35512628582844
C            2.48126601399844        5.73037971178750        1.84580625816516
O            2.71378512148245        2.25602733179385        0.62459181638832
H            0.44976074804164       -0.24431711126818       -0.09640491649163
H            0.92375702396246        0.71972148531293        1.30973822202081
H            0.92699357087603       -1.04616237872067        1.40419482645739
H            4.54908401965700       -0.16584536045361       -1.37586667182583
H            6.07834892031916       -0.43371665590893       -0.53504207663776
H            5.88000735753699        0.98033970055953       -1.57253270045752
H            3.91227544607208        3.45906573045008        5.34265108990772
H            4.76576114923353        2.88997396162064        7.55794662812580
H            5.54061491223077        0.60932268646274        8.03813015331588
H            5.46553767762996       -1.10852680535961        6.27980856525976
H            4.61593795221054       -0.53041493261851        4.03981062268884
H            3.58441909940717        3.88061451904277        3.39339530127601
H            2.06812340124897        3.88191607539513       -0.93266163750195
H            1.36405303328516        6.07230745373709       -1.81177095418271
H            1.38091628047464        8.04210842148973       -0.33997364754448
H            2.09449179239001        7.81798777407115        1.99972869277763
H            2.78255174248145        5.64565263197610        2.87400574308145
