42
 energy: -7.667397458394 gnorm: 0.000611305850 xtb: 6.6.1 (8d0f1dd)
C            1.42607333924791        1.50111677503969       -0.52110533042821
C            2.64404818935543        0.69031312718621       -0.21650909160515
O            3.24496411651065        0.96190273277338        0.80291704397373
C            3.08685767775655       -0.35498536920588       -1.13032548322079
C            4.13403014004341       -1.23747003225265       -0.80230979148260
N            4.54208393524380       -1.51653020515251        0.48351206872189
C            3.84518893586175       -1.39843333654899        1.76922344629937
C            2.43227519457672       -1.96555053806813        1.70630873940284
S            2.36545349613847       -3.66796080668698        1.23003864967687
C            4.66872383179414       -2.09507808790871        2.83602722390682
O            5.39215334986191       -2.99965339876711        2.48282550133169
O            4.51872261846849       -1.66136972035068        4.11138650839775
C            4.74974890037020       -1.99606545695280       -1.86425740151187
C            5.92149637759505       -2.74593453123168       -1.68815351350499
C            6.46374165607986       -3.47296664894761       -2.71005886330459
C            5.86669302090440       -3.49596884507022       -3.98015103300658
N            6.41279828424230       -4.25212808972457       -5.02903987632235
C            7.60308948336885       -5.07882712234498       -4.83650250492527
C            5.83434707833121       -4.22278608574871       -6.37184242218757
C            4.71435856544477       -2.74458180961796       -4.16373104482474
C            4.15054138423296       -1.99657882803081       -3.13765121285362
O            3.00288398018206       -1.28102503966382       -3.41346528553529
C            2.47888833514150       -0.44095303081093       -2.45494549420971
O            1.49337830251151        0.23953113413761       -2.71000141132821
H            1.15550856812124        2.11329298932813        0.33809030818066
H            0.58411218009927        0.85727962982838       -0.77556705602138
H            1.61079475350795        2.15650826745882       -1.37220638886208
H            5.26152736572475       -2.22812475639736        0.62139766384372
H            3.82209169829914       -0.32683682313449        2.01293495637176
H            1.82774332736161       -1.39121858953503        1.00112652936589
H            1.94635237632680       -1.87825541723112        2.68086447635674
H            3.13889720656362       -3.40759574082058        0.15896123784763
H            3.89602826440906       -0.90467982079544        4.16901536538304
H            6.42734832068332       -2.73284418474154       -0.74034403644973
H            7.36626980766350       -4.03257327220423       -2.54276439174374
H            7.44020370506330       -5.78131422400384       -4.02208403191197
H            8.45869358661734       -4.44956463700482       -4.60157324310486
H            7.83344948538267       -5.64930865431505       -5.73301540790916
H            4.82306300961545       -4.62312859920601       -6.34983916444977
H            6.42296661788500       -4.81845607470890       -7.06535667006142
H            5.80698550108458       -3.20030633191007       -6.74225699271228
H            4.22286403232898       -2.72766054665814       -5.11718257558327
