93
 energy: -18.050755534225 gnorm: 0.000855979770 xtb: 6.6.1 (8d0f1dd)
C            1.78596976826964       -2.51931026537097        1.71383826986294
C            2.95768145703770       -2.33798634245009        1.46972546825440
C            4.32002077500600       -2.11258210213543        1.15682621963503
O            4.55082729891308       -1.52818637871271       -0.12833771893642
C            5.87682196598297       -1.32135684599481       -0.44180802295619
C            6.18533187842652       -0.75846350630198       -1.69424351306681
C            7.47904547959259       -0.54672763276862       -2.08321935165756
C            8.55079601822245       -0.86917734030395       -1.23592969974243
C            9.91306427342992       -0.71601994584434       -1.66933053351930
C           10.94982626827480       -0.95989874354785       -0.83532780077392
C           12.33869281146807       -1.08989462554826       -1.10465471689879
N           13.14088269337166       -1.63701622821563       -0.16561574863875
C           14.43751441651370       -1.80441701897961       -0.55715133861762
C           15.39569988287624       -2.44183977719898        0.28217068285298
C           16.79926360044826       -2.59753409096368       -0.13068777226617
C           17.39516562631098       -3.86682929717831       -0.23045222899091
C           18.69856039115287       -4.00818283141479       -0.60890464102024
C           19.49777571438838       -2.88824106418215       -0.91328404661678
N           20.82266752863210       -3.02858842949318       -1.28354109178933
C           21.47974021167341       -4.34327557070000       -1.41941252962019
C           21.95070830454293       -4.88659652687996       -0.08794132320737
C           21.70026718327900       -1.87538571146807       -1.56547868121449
C           21.53280072263056       -1.36254987521562       -2.97918256739306
C           18.89463882595833       -1.61803560119270       -0.82134829737564
C           17.59076521670937       -1.47888937623859       -0.44443393392114
C           14.91469779417646       -2.92721341683016        1.53360202949921
C           15.54640597775836       -3.56879056525601        2.65664950138784
C           16.98189613258734       -3.90297655730434        2.81256668299300
C           14.57373623555788       -3.82249851732911        3.60248494392441
C           13.32923614431286       -3.31884988364152        3.13492727121347
C           12.02304122329503       -3.29454354845178        3.71632402941143
C           11.65656103939130       -3.96075971187322        4.82659528630868
C           10.33586694935049       -3.97238157464565        5.44781477538570
C           10.29775180733159       -4.24309399832203        6.82170667967121
C            9.11192713379567       -4.28326542540936        7.51776051882498
C            7.92776366251305       -4.06400649491009        6.85995608917064
S            6.38809644012971       -4.11782657805922        7.77880558964003
O            6.31284403826914       -5.48867856240066        8.37484854022435
O            6.44182702031975       -2.94522209194265        8.70581112047581
O            5.24607227323958       -4.00331779169293        6.67868957590162
C            7.92998570539660       -3.81022629451316        5.50745480362168
C            9.10519541297334       -3.76548272991129        4.79547611683993
S            8.82347932893848       -3.44567776691952        3.04535602804453
O            7.34860888025815       -3.52972253910622        2.77942386385441
O            9.41025076116365       -2.10263794888116        2.74339585980278
O            9.67079301051987       -4.54387867932893        2.26814352050600
N           13.60394110563541       -2.80426552570598        1.91933796037928
B           12.51088138189516       -2.15710768842501        1.10777285093033
F           11.97723614677101       -1.09510998908893        1.81991650321905
F           11.56018292802184       -3.11075506335534        0.78613276497296
C           14.45495695181496       -1.31683894355135       -1.91596281097807
C           15.61075381932008       -1.30581481295796       -2.84321120533903
C           13.18309349526795       -0.88320164836549       -2.23162071683723
C            8.23776073020433       -1.41257262004140        0.02332478179975
C            6.94940864896548       -1.64267680562350        0.40477116228044
H            0.75362460538373       -2.67748266400318        1.92881460987718
H            4.86557591959037       -3.06443970273454        1.19039722417259
H            4.76342419747559       -1.44386953640590        1.90515987390945
H            5.36820847316258       -0.50918257443086       -2.34752908139062
H            7.68977332195951       -0.13121475537449       -3.05330005934940
H           10.10816280379165       -0.47316742621860       -2.69793981948613
H           10.71223782996158       -1.17473461703789        0.19092863797339
H           16.79439855070686       -4.73400814473227       -0.01819311386342
H           19.12245647464693       -4.99344308959850       -0.67169362051339
H           22.31986570167998       -4.24024260576413       -2.11409523425743
H           20.78679740980927       -5.03145918835729       -1.91285719622395
H           22.66699276382424       -4.20851066837025        0.37765459849449
H           22.43265272327650       -5.86092332236603       -0.18874968108037
H           21.11954055208939       -4.99747174613966        0.60902004276473
H           22.73718500482633       -2.17691852844793       -1.38361825885535
H           21.49927966223118       -1.09316412661105       -0.82721261401347
H           21.77436610180451       -2.13917211885333       -3.70597243901885
H           22.17518486577123       -0.50410018045242       -3.18428936070063
H           20.50274829151423       -1.05903629857798       -3.16901118542815
H           19.46989040842971       -0.74112444534031       -1.05448874260540
H           17.15054744061096       -0.50032563459630       -0.36248128577916
H           17.61239088158972       -3.15741067514403        2.32824438602726
H           17.20540231802895       -4.87722814284674        2.37811241703434
H           17.26034015959463       -3.93573636728670        3.86609725772723
H           14.73798561371297       -4.29466890856350        4.55549333245876
H           11.29510065678939       -2.68188309048825        3.21267795257838
H           12.42258252422320       -4.52147121052574        5.33362142719596
H           11.22423680312094       -4.41046925946009        7.34381791784665
H            9.09738805016011       -4.48581039519199        8.57675664172624
H            4.51356903946358       -4.59395529413555        6.92344053032155
H            6.99015150289711       -3.65742371605706        4.99572412076712
H           10.32895955891958       -4.09326096736706        1.71043565694586
H           15.27697592573910       -1.29405430810997       -3.88097984919170
H           16.23162311004201       -0.42471626759545       -2.68150384774989
H           16.23067043002291       -2.19173084493061       -2.70552819587260
H           12.87179517129189       -0.48039209068937       -3.17931296163136
H            9.01731853269949       -1.68153671708395        0.71342583227819
H            6.77088612666665       -2.11582146819823        1.35371488773191
