52
 energy: -9.962016474307 gnorm: 0.000272183345 xtb: 6.6.1 (8d0f1dd)
C            3.67065726477314        1.43263447720324        2.29407445992069
C            4.15465478413315        0.39471588863049        1.33501653341576
O            4.51839559680327       -0.66741791263007        1.79960044570078
C            4.19479534307051        0.67597607255254       -0.09282448060864
C            4.57852366226713       -0.31626357634851       -1.01630641277524
N            4.40440922943699       -1.66785114948216       -0.77221482370426
C            3.23889083493389       -2.27329620754640       -0.11271727132742
C            2.06841949313835       -2.46456475245066       -1.08151850213778
C            1.76283832162153       -1.24221887412291       -1.89026337290795
C            1.32723348696628       -0.07688426271593       -1.27720884840043
C            1.16386857966097        1.08251130583507       -1.99782614074260
C            1.42009349369096        1.10830828453621       -3.36916727793237
O            1.30120876215068        2.26329551259083       -4.11740812778180
C            1.82285764323308       -0.07417907200956       -3.98778571426756
C            1.99750966920475       -1.22492169476800       -3.25790324775906
C            3.67018539041479       -3.58847849559791        0.50676815080508
O            3.31454782398951       -4.62560275217920       -0.00741020661559
O            4.46938822788767       -3.46543794559443        1.59217725239272
C            4.98647132661519        0.09997410379932       -2.33613095016294
C            5.56632219787982       -0.77382482639957       -3.26493558932762
C            5.88071116789116       -0.35995025755390       -4.52857542698912
C            5.62853805041822        0.95761276149123       -4.94306545566528
N            5.93206105974516        1.38265983025761       -6.24606066274950
C            6.63822954729008        0.51832320254235       -7.18975195361116
C            5.53514214812592        2.70453805430984       -6.72846240299190
C            5.06460941723550        1.82897745674291       -4.02138805906951
C            4.74463500026526        1.42974030144670       -2.73028925157031
O            4.17168591374315        2.36211858887452       -1.88579209944021
C            3.89750636552881        2.01953785285730       -0.57856031895575
O            3.38245386375304        2.83378234556215        0.17765480019375
H            3.78499843709032        1.08068769143075        3.31842504533000
H            2.62012213499750        1.66105154441115        2.11663971484158
H            4.23652472648497        2.35701479603566        2.17653173392582
H            4.76138965760903       -2.34866604126830       -1.43671176764320
H            2.93098724799105       -1.59008209254317        0.68857610806918
H            1.17679707459976       -2.78755905051641       -0.53465573802002
H            2.31734877301650       -3.29405998185705       -1.75000296359651
H            1.15291820287832       -0.07802414846743       -0.21492679533726
H            0.87018987977831        1.99077210142969       -1.50247417539801
H            1.11963400145492        3.02451328977876       -3.52712004247424
H            2.01938481778784       -0.05462228263559       -5.04463882850375
H            2.34238542628419       -2.12142249480230       -3.74364282658114
H            4.60840931692670       -2.50502961659984        1.76593625708433
H            5.78887145978334       -1.78438817817782       -2.97532208376412
H            6.32010934200355       -1.05437991860275       -5.22161443330225
H            7.54212499019537        0.12476069352135       -6.73005376234481
H            6.92816818951204        1.06913669961239       -8.08145870578399
H            5.99798876211806       -0.30904407236983       -7.48756758280668
H            4.47673076862527        2.86820579470767       -6.53688306368234
H            5.70126067282560        2.79573280304513       -7.79926387334517
H            6.11405895623232        3.47404222917403       -6.22241355796199
H            4.85831349591153        2.84661597489635       -4.29102370366738
