51
 energy: -8.265760876352 gnorm: 0.000926152500 xtb: 6.6.1 (8d0f1dd)
C            2.38493265862936        1.87061589496869       -3.45886957120083
C            3.06232090194253        0.80312549659220       -0.63311279129100
O            2.55637955985112        1.89561069434761       -0.73860423180204
C            3.60644371682917       -0.46229999314635       -0.75077486817633
C            4.16562783371549       -1.13120883345239        0.35155128981045
N            4.08551720798301       -0.62956111304069        1.62511761758100
C            3.15077088716345        0.35238351897629        2.18407206658981
C            2.36636060293668       -0.24317177617395        3.35113842022201
C            1.66272703500166       -1.50516909187602        2.96010392165539
C            0.56878295907069       -1.46235811190160        2.11068250497315
C           -0.04020924079247       -2.62487067213586        1.68812495028551
C            0.43959037959086       -3.84679829424222        2.10763711089538
C            1.52876606107039       -3.90377089367274        2.95013394879192
C            2.13813073348050       -2.74065554400231        3.37078950886355
C            3.90916584221803        1.59300480430346        2.60727717905978
O            4.43413597033480        1.57577855307272        3.69744050697427
O            3.95381598229551        2.61525091862034        1.71860150194947
C            4.84438687154333       -2.37318216628427        0.10594004765840
C            5.47307474057484       -3.10783241196463        1.12026421315214
C            6.10444183014825       -4.28898146351709        0.85772627906779
C            6.14173728570916       -4.82206956746518       -0.44758891747443
N            6.78784921389583       -6.02415974033862       -0.71929877297124
C            7.53684713454635       -6.74676326771110        0.31045929252892
C            6.78301164558604       -6.61690692207566       -2.05820646636438
C            5.50923633936061       -4.09999837306762       -1.45585659725982
C            4.86537258270265       -2.89208965278274       -1.20983186104057
O            4.27185051198808       -2.25409611592880       -2.27919670286250
C            3.66527281840858       -1.03620974582459       -2.08547215429185
O            3.17333233281136       -0.40173174400192       -3.00727638656914
H            2.37886053595889        1.83218435456734       -2.37532215021462
H            2.50626079187476        0.86726863592246       -3.85070058417015
H            3.12128028971395        2.55704670662240       -3.83355828204690
H            4.70167473974089       -0.95639278563394        2.36489196128594
H            2.43049235591927        0.61618234065000        1.40064095823462
H            1.64686896522544        0.48763603407014        3.73603679385610
H            3.06090160659633       -0.43480211794618        4.17498327934789
H            0.19939832282672       -0.50766237034248        1.77625072673867
H           -0.89094814020427       -2.57801953509708        1.02783619744662
H           -0.03714206864844       -4.75625470913927        1.77901769933823
H            1.90319450179464       -4.85850209246485        3.28174723982176
H            2.99406769043173       -2.78621762798200        4.02235769000342
H            3.52523275946661        2.34907005925731        0.86986906387508
H            5.46007298245238       -2.73631414959307        2.12825325551700
H            6.57850215942360       -4.82656932188647        1.65906874647898
H            6.85910251297884       -7.10249578329370        1.08376043103923
H            8.28117897630282       -6.09080909001528        0.75743341562819
H            8.05557867378019       -7.60536294635831       -0.11009219172016
H            5.76052300143209       -6.72938826514579       -2.41282926598971
H            7.24551982117747       -7.60134205291192       -2.05354927996930
H            7.33560440686059       -5.98154765178659       -2.74746372079120
H            5.51315271542016       -4.45966201808823       -2.46687302231806
