47
 energy: -8.509566451925 gnorm: 0.000689224670 xtb: 6.6.1 (8d0f1dd)
C            3.59260676664976       -2.76009725442300        1.19130215199388
C            3.31753400836102       -1.42676560890930        0.57662710814591
O            4.08253466828639       -0.52085269422534        0.84314457600664
C            2.15049550847355       -1.23626309746588       -0.27597818916255
C            1.94710962313627       -0.03145928323040       -0.97778466043156
N            2.98001319979485        0.78543093318105       -1.38866200954826
C            4.34496454475927        0.40103264123088       -1.76208558495887
C            5.26316018503322        1.56047239421907       -1.42172053982724
O            5.67751169575228        2.26633638749250       -2.31381192109081
O            5.51165783807189        1.71121183087971       -0.09907190146313
C            4.44425657549915       -0.00932790157971       -3.24321588743445
C            5.88149059378179       -0.36822863766776       -3.61604448062288
C            3.48317795786023       -1.15047850175044       -3.56573839458700
C            0.60718382887152        0.29434443386348       -1.40243846197978
C            0.24654290205359        1.55611169602582       -1.89403414934719
C           -1.03292652246410        1.82465876655664       -2.29232528860749
C           -2.03494150384255        0.84345863047589       -2.22298434301316
N           -3.35317916445103        1.11774215698325       -2.62068124347242
C           -3.72012073159127        2.39579664988963       -3.22768679497792
C           -4.42881885421153        0.14660217691058       -2.42372527094356
C           -1.68049243634550       -0.40845835839388       -1.73902600058948
C           -0.38608458666230       -0.70039156846638       -1.32789610196544
O           -0.12059517507783       -1.97786247657350       -0.86932347473013
C            1.11197402288803       -2.26165289183465       -0.31826115825951
O            1.34555755004433       -3.37481365050726        0.13623254351836
H            4.58623496871240       -2.77263321543473        1.63725444014884
H            3.53038833497039       -3.55240621185183        0.44534101148809
H            2.85979718480088       -2.97760132660074        1.96821561950224
H            2.77597609506103        1.66885085386197       -1.84693922067727
H            4.63341753257050       -0.46296002707794       -1.15360887820719
H            5.02581612102600        1.00300517533625        0.38503929585765
H            4.14792087334253        0.87744981280141       -3.82885147753642
H            6.22864436632680       -1.22249472147323       -3.03559532981837
H            6.55652168149476        0.46517511287876       -3.41424006838297
H            5.97002677225334       -0.62490995531610       -4.67179198606210
H            3.71690320916336       -2.03110692763973       -2.96795839312661
H            3.54286631340211       -1.43803956428173       -4.61560206705038
H            2.45013577731434       -0.87595537550364       -3.35303632324889
H            0.97885686312033        2.34154765001516       -1.92966234484960
H           -1.28347410384975        2.80717046638844       -2.64955165290880
H           -3.05957054634412        2.61469216226477       -4.06392679646326
H           -3.64315640044057        3.19306184648730       -2.49150270478548
H           -4.74048599259348        2.37086737404741       -3.60338648269529
H           -4.43215793852869       -0.20085225268668       -1.39282198127407
H           -4.28972717430059       -0.70342943355993       -3.08797992846962
H           -5.39972059485485        0.59095193356955       -2.63074370192135
H           -2.40981583731563       -1.19272014890451       -1.67718155216972
