34
 energy: -6.339390063887 gnorm: 0.000761000310 xtb: 6.6.1 (8d0f1dd)
C            1.34932975925289        0.30801573093468       -0.94493396067173
C            2.52838149119039       -0.01183503775243       -0.09164176043273
O            2.87221715655024        0.79111143363704        0.74603175694908
C            3.24311846771656       -1.26463232163747       -0.29229550330176
C            4.33073620988300       -1.61636734314073        0.52228230181804
C            5.03615768218356       -2.83227425386692        0.33803753580628
C            4.68113131963918       -3.74301578840186       -0.66858937789499
C            5.40721951567733       -4.99163919090411       -0.85061976613098
C            4.98949341523701       -5.93104252917448       -1.92970991910334
O            6.35440465786378       -5.28658447249467       -0.15745968189443
C            3.59421702042609       -3.38856818502135       -1.48353528991776
C            2.88978326774347       -2.17660869758955       -1.30061963249838
O            1.87443419299920       -2.08520168111028       -2.23715282496226
C            1.97399738101691       -3.27909427431603       -3.02759645936884
C            2.15839767589657       -2.97833904306554       -4.51905113347029
C            0.99250817035617       -2.27575933859056       -5.15752414297225
O            0.73401224381507       -2.53460152643231       -6.31107378027225
O            0.32555621823112       -1.38014888822778       -4.39633803165837
O            3.04209543451676       -4.09452904271007       -2.53848039665817
O            6.04930731273675       -2.91676070693988        1.27663911435445
C            5.95623332563003       -1.73153075547264        2.04209332776249
O            4.89251675052433       -0.92230903513086        1.57939515871730
H            0.78613740284032        1.12856858007187       -0.50102878139999
H            0.68899408824002       -0.55395696330163       -1.03721906526260
H            1.66747262294509        0.61257172129870       -1.94153487433322
H            3.90453885510790       -6.03114671581625       -1.96371603493402
H            5.42422683766023       -6.91409458000445       -1.75061007758350
H            5.33262286013437       -5.57508264186842       -2.90065378324646
H            1.04293605406068       -3.84728411587632       -2.85969502155053
H            2.33883951553680       -3.91230568685398       -5.05596762213291
H            3.05778307119241       -2.37286912405844       -4.64374437402585
H            0.72736116471010       -1.37942282607693       -3.50149279417888
H            6.89805795385576       -1.17104645144197        1.94925411298768
H            5.77140090463097       -1.99841624866393        3.09300078146115
