38
 energy: -7.057556473466 gnorm: 0.000718241408 xtb: 6.6.1 (8d0f1dd)
C            0.88195432690510        0.07387823031743       -0.02561298814676
C            2.37405774003018        0.06330432504699       -0.04427111367737
O            2.96663294745774        1.08037479284387       -0.33030814626752
C            3.10619514020259       -1.18020074927824        0.29711495155094
C            2.69360860820415       -2.42364854446810       -0.15331585824512
C            3.39079874486598       -3.58968920181038        0.20960974316305
C            4.50216510268391       -3.53478713500035        1.00505677161811
C            4.99461206757199       -2.29682281372979        1.45171752551717
C            6.17081022469382       -2.20443537432071        2.27525878585778
N            6.97847383004383       -3.33281698681312        2.54829754142793
C            7.40068601684209       -4.26284982913759        1.49434053730533
C            7.81136326100675       -3.38608114254310        3.74824800492969
C            6.52866718990722       -0.96177414506703        2.77866990220572
C            5.82225942753595        0.18505497389957        2.45074943039492
C            4.73589191064635        0.11638647452033        1.62482952483737
C            4.28173122763413       -1.11286522576539        1.11334751428920
C            2.76046023208410       -4.80764409941162       -0.41145181898231
C            1.67243823000933       -4.28646423640726       -1.37461596229664
C            1.55111942238672       -2.77586814635391       -1.07322695702638
H            0.52383433127303        1.04883287297888        0.30238417643845
H            0.48710639979791       -0.67523512446785        0.65971386853832
H            0.48022242731380       -0.10816576831686       -1.02130410952464
H            4.97879369137947       -4.44789224939938        1.30432976661937
H            7.03722686230416       -3.93290447883810        0.52301341086287
H            7.02556428874310       -5.26376879028223        1.69958996706658
H            8.48733877126977       -4.30502412107699        1.44684301281763
H            7.28850828883513       -2.93452574535143        4.58932049284783
H            8.74622027116722       -2.85393656297844        3.58193336348756
H            8.03803292269769       -4.41957431661037        4.00432176156660
H            7.40560730308245       -0.88251366851240        3.39608743463225
H            6.14449626260718        1.13933696186232        2.83420890731791
H            4.21460098983678        1.01347899333627        1.34108934097138
H            2.33200436086987       -5.43959998394154        0.37511822226538
H            3.51751100942751       -5.40889059870900       -0.92851523842413
H            0.71837106029666       -4.81173550338102       -1.24061336415343
H            1.97098781932921       -4.44837341562444       -2.41777576258843
H            0.59726934604665       -2.55360844340926       -0.58296638265517
H            1.59589794301176       -2.16929122379947       -1.98512625654093
