38
 energy: -6.123010984074 gnorm: 0.000856421250 xtb: 6.6.1 (8d0f1dd)
C            0.58908430211384        0.06638632355201       -0.46228206768674
C            2.07849915599009        0.12127167938786       -0.53823202815203
O            2.62163988554654        1.16353534529091       -0.82946531930710
C            2.86334759101240       -1.10628529273317       -0.24331686510214
C            2.58663461557924       -2.28659122183496       -0.91050735443364
C            3.31323568170224       -3.45578203573689       -0.64234208066420
C            4.27830167854532       -3.47202500537812        0.32436125187583
C            4.58790889380783       -2.30746061215997        1.05663529167041
C            5.48666075976127       -2.46554797398094        2.10719237998464
C            5.57551502315748       -1.76822836987539        3.21387942967410
N            6.43582852164777       -2.01176152189336        4.12235833013196
C           12.93818611258922       -3.75973798132548        3.36442599893014
C           11.37827955669232       -2.69326087216044        8.38604923001576
C            5.37398215917904        0.45460658520875        1.98735537158963
C            4.32443558803516        0.18865739412039        1.21936192614729
C            3.93711740495924       -1.07691897029620        0.71501804056643
C            2.86325306375346       -4.58457489091984       -1.53155365801772
C            1.85332227687575       -3.97286859082652       -2.52811397187073
C            1.59391815855396       -2.53693039430130       -2.01762457657019
H            0.21104973979731        0.94494722531275        0.05917500143506
H            0.25071315896573       -0.81831847896720        0.07704596175513
H            0.15313673474498        0.05821093864364       -1.46052700462153
H            4.79167606561954       -4.38990274109732        0.54818625629136
H            6.22421086244233       -6.59722340269943       -0.26333605148840
H            7.39729651164035       -2.03548779766282        3.78423744576992
H            6.23000986534483       -2.85186102826038        4.66309359485512
H           13.50950992311155       -2.91695541071970        3.48684809136997
H            4.02807999614588       -1.17895681309257        3.61581995226552
H            7.44549247030295       -0.90473258553503        1.60550153447539
H           10.98965914215777       -3.04833536895892        9.26315682091811
H            5.64653223890684        1.41521806169195        2.31617720430488
H            3.75599708963121        1.02986104585487        0.85887175950761
H            2.40184851137167       -5.37011127004538       -0.92196889983855
H            3.72283912715838       -5.03705759034709       -2.03964870614394
H            0.92894848407237       -4.56090455055603       -2.58884441715311
H            2.27393261642932       -3.95228157592504       -3.54112645026917
H            0.57388552673076       -2.43613619478035       -1.63090034510328
H            1.71294150702097       -1.78906605912210       -2.81030107713632
