38
 energy: -5.670975101531 gnorm: 0.000911330517 xtb: 6.6.1 (8d0f1dd)
C            0.74139746815811        0.56253838796016        0.50526861711373
C            2.20132341048185        0.51898246492573        0.20021661020341
O            2.59639703274704        0.86685219200875       -0.89021476750149
C            3.14569516848048        0.05235748038214        1.24660331316469
C            2.94809793894958       -1.15068576331114        1.90214055456174
C            3.86096666351902       -1.60755657329837        2.86680576233006
C            4.95817618816149       -0.86502228501216        3.20443822060565
C            5.19853643590225        0.37794737500648        2.58726701764985
C            6.32499971990464        1.10170339846824        2.97614529338391
C            6.50176126327082        2.40524434822764        3.03720794182398
C            5.46438793134009        3.26263905089104        3.31050325954113
N            4.98586019898695        0.98650492688357       -2.75260016455076
C            3.47897251916155        4.31271977835463       -2.07780322905511
C            9.87504608290364        3.72281314096532        1.09460121625622
C            4.56920262117386        1.97462026454232        0.87514766428198
C            4.30693185905368        0.83033147739106        1.56895090377046
C            3.45430859134230       -2.95856436229525        3.39258617958135
C            2.23918788280811       -3.40439433433910        2.54890387932495
C            1.86076839049427       -2.17402901594380        1.69300791808590
H            0.30421832633176        1.47700470750707        0.10629985595055
H            0.55982440020786        0.54351461536482        1.57979811438165
H            0.22642379201515       -0.28119836357663        0.04742847352249
H            5.64113279447178       -1.22844609827827        3.95090926572343
H            5.03529928606024        3.01587873964023        4.26021901119116
H            5.82510431055761        4.27048133124189        3.33048384439269
H            1.94544745168801        1.99733873558794       -2.50174027168077
H            5.67420926200809        1.28787475800888       -3.40270481906177
H            7.20900529939109        2.79502508192141        1.40854480320989
H            8.08577073384886        2.78881308620220        3.74168285423305
H            7.54767439016251        5.42262966984128        1.73055447578083
H           10.58824756726887        3.07598047839208        0.74755210205352
H            3.96571736387443        2.32264301752024        0.09058451898089
H            3.19846931146592       -2.87688130536533        4.45536134038985
H            4.28973113549286       -3.66450365571633        3.31845388804822
H            1.40456718810362       -3.73929817074753        3.17759557165951
H            2.50341963468218       -4.25490600766170        1.90827255575777
H            0.89614348604252       -1.75949572502220        2.00592420372771
H            1.77390689918346       -2.42359684598375        0.62912402109015
