31
 energy: -5.682556005878 gnorm: 0.000665948801 xtb: 6.6.1 (8d0f1dd)
C            1.25052994398392       -0.27982648070660        0.25957270627101
C            2.69006769748266       -0.08090014960665       -0.07964742154046
O            3.28530335452075       -0.96700012612232       -0.64585165817779
C            3.34902265809261        1.17826354319487        0.30492368542376
C            2.88838628749756        1.93146067861309        1.37775114790604
C            3.51389267133403        3.10084084953346        1.76247577864526
C            4.63968311266403        3.55712681882707        1.04815714158921
C            5.10494520655749        2.79294323313710       -0.02434197927116
C            4.47700107981692        1.63307810109187       -0.40468606279469
F            4.90727255838992        0.98510970051939       -1.50812648600859
N            5.23651943851511        4.75333139845347        1.38585589554124
C            4.64022378108979        5.73827713959343        2.33290943084239
C            3.66972937761149        6.63440660967305        1.55885949201853
C            5.75846950953251        6.57869396649908        2.95639948060194
C            3.87176742137744        4.97014312310352        3.44595233267601
C            3.01771006085760        3.85762577271604        2.91075935148789
O            1.95330514382263        3.59682483752662        3.42480431627492
H            0.81365620352637       -1.01048174788913       -0.41999039264924
H            0.68776455544177        0.64830969692945        0.16526415240965
H            1.14065648017436       -0.65757546796913        1.27530672107564
H            2.03986076752289        1.59977249744566        1.94898782115976
H            5.95937261970127        3.12461387866828       -0.58335426432579
H            5.97626414004105        5.14480894300591        0.80716226259939
H            4.18512003786828        7.15742519100391        0.75517534950077
H            3.21327698837531        7.37652518403814        2.21228379980329
H            2.87439157343732        6.03758120548491        1.11477376772010
H            6.29528244248633        7.13773550517490        2.19178589439094
H            6.47575009624085        5.94027639226617        3.46947665647337
H            5.35742072987807        7.28955432482049        3.67741935440752
H            3.23685386493959        5.66313402696632        4.00430045543897
H            4.58258019722008        4.55251135400850        4.16317127051006
