32
 energy: -6.167907784142 gnorm: 0.000847662466 xtb: 6.6.1 (8d0f1dd)
C            1.34463514960863        0.50343421658061        0.43123696799084
C            2.29489410503002       -0.29314110571926       -0.39892245238157
O            2.44096852037572       -1.47626279594309       -0.17973959130596
C            3.04659918193044        0.35977604858521       -1.47473538021182
C            3.91490764764814       -0.40689035926024       -2.24526209464531
C            4.63518394200943        0.15224245588000       -3.26923616441476
C            4.52177993781784        1.51495413085065       -3.57151324388992
C            5.28491133825367        2.11549345732916       -4.67213617273055
C            5.57057182536960        3.47762747691371       -4.70774531013850
C            6.28368406719896        4.01783968039737       -5.75011344593126
C            6.59208292961121        5.46842043500420       -5.78306982841577
O            6.73360769466925        3.26324354730031       -6.78534310326057
C            6.45871611223833        1.93347201079141       -6.76049026742811
C            6.93903035310338        1.10467966351630       -7.89184734446311
C            5.75418777690336        1.35101582674407       -5.73688822751242
C            3.64984042622750        2.28164508683962       -2.78791236809984
C            2.92862971129117        1.71902967848270       -1.76575372631866
H            0.84632359846413       -0.14919713619010        1.14729768324796
H            0.57827878419600        0.97138513577452       -0.18636312510912
H            1.86784877585853        1.27848025669437        0.99079726180287
H            4.00727386560899       -1.45450072195902       -2.01347218912723
H            5.31616075519926       -0.45960410476447       -3.83344243017225
H            5.25644454341878        4.11378826676776       -3.90146077319317
H            6.23665573184138        5.97754483863310       -4.88702441289158
H            6.12342145451395        5.93546362756085       -6.64896695397343
H            7.66777770187138        5.62448619718355       -5.85983897640473
H            7.51042217525912        1.71710136316604       -8.58874860588900
H            6.10272182887208        0.66409959711431       -8.43446248552332
H            7.58409125768093        0.29923658316391       -7.54024581272144
H            5.54147080927698        0.29912965273515       -5.78181120241589
H            3.52325892197740        3.32600868212788       -3.01163754433622
H            2.26206907667325        2.32936830770001       -1.18216868013527
