33
 energy: -6.825008232997 gnorm: 0.000749663938 xtb: 6.6.1 (8d0f1dd)
C            1.90986629059697        1.30395217086289        0.24779051862086
C            2.44571013349636       -0.08064957836159        0.10486257661439
O            2.37542623595388       -0.85529771046758        1.03173092921743
C            3.05944333686510       -0.49985103478842       -1.16948351638823
C            3.55842538527606       -1.79134852779360       -1.27616863045534
C            4.14013700835191       -2.23398829279169       -2.44018398584970
C            4.24536787929491       -1.39290974666217       -3.54873990347626
C            4.85776508681926       -1.83394341017456       -4.79604298039897
C            5.33245789351580       -3.08019750110362       -5.07250863924849
C            5.88267121028869       -3.21449584245095       -6.38730690360626
C            5.82610609594612       -2.03937598135951       -7.13356003464078
C            6.31964126315890       -1.97760951126936       -8.44279198162223
C            6.87337817251457       -3.09112165658357       -9.01583113767754
C            6.94410912957607       -4.28770971161955       -8.28952002505391
S            7.59411555628842       -5.83566318928910       -8.78158101163629
C            7.20950916980136       -6.56492212618576       -7.25294175248561
C            6.62458013870802       -5.68843442696380       -6.41532254629750
C            6.46259715674676       -4.37872411194331       -6.98676124773604
S            5.08132011099778       -0.78060151767885       -6.18144254764073
C            3.74320326792446       -0.09663438980693       -3.43578481967828
C            3.16117009636900        0.34442678143406       -2.27168650436030
H            1.51061811348607        1.44134368230833        1.25234825033803
H            1.10489053481310        1.48923793907367       -0.46315188022295
H            2.69293290071371        2.04619682970123        0.09357675398773
H            3.47712697540113       -2.43965198626599       -0.41999396057950
H            4.52209633981953       -3.23766939033284       -2.49668132307337
H            5.30248401272889       -3.90064874401219       -4.37653023204658
H            6.25582658439919       -1.04977273305748       -8.98380682316750
H            7.25811970050622       -3.06437488174670      -10.02027244469217
H            7.41993471662452       -7.59286379193485       -7.02603075149222
H            6.30116549801628       -5.93352277616576       -5.41618742052209
H            3.81826900443112        0.56125532249735       -4.28362701964739
H            2.78068500056848        1.34884984492489       -2.20983900508837
