52
 energy: -9.664663969307 gnorm: 0.000340606322 xtb: 6.6.1 (8d0f1dd)
C            1.17434419266738        2.74983139499261        2.09460692398320
C            2.64944898720956        2.55050443904361        2.17327704324165
O            3.37897446442131        3.51153258843335        2.24673643514267
C            3.23287091362480        1.19996315841463        2.16410050489673
C            4.61832326563841        1.08083398273126        2.21235076442774
C            5.22514582135245       -0.14839650056501        2.20028412794469
C            4.46732177971653       -1.32660554847026        2.14077226811358
C            5.10455335644052       -2.64563408904511        2.11266565833184
C            6.42587918828297       -2.81116549632170        1.64179583934906
C            7.03129975886907       -4.04376170080679        1.57586647063446
C            6.31997969412842       -5.16944588708545        1.98788370261094
C            5.00608016256572       -5.01800626703457        2.46888814038879
C            4.40268543290134       -3.78683704533862        2.53472702119144
C            4.47411872312060       -6.34111237641511        2.82178168961029
O            3.37907291077201       -6.59507324646303        3.26676172111154
C            5.55005826346778       -7.29103455202505        2.50867272058641
C            5.57165259988725       -8.65836049295052        2.62759369523384
C            6.71903592841721       -9.37139635860980        2.24252112834698
C            6.75154953400952      -10.83351951802202        2.32983705931854
C            5.56759689006190      -11.58666799018720        2.31739599260025
C            5.59069481207153      -12.95619879632838        2.38618497517050
C            6.80172606520815      -13.64176634899950        2.47223212983181
C            6.89684910871455      -15.10817443416846        2.54253244025965
C            5.67204108430026      -15.95767527322618        2.53851356519273
O            7.98550652376159      -15.62992337965049        2.60422966030783
C            7.98123250766792      -12.90395189771056        2.48944851472369
C            7.96232278168435      -11.53494074183558        2.42002480538372
C            7.82467238083546       -8.64159401854433        1.75256332035721
C            7.80487684799979       -7.27192936364206        1.63510271128278
C            6.65653870243801       -6.57744662888756        2.01168475059047
C            3.07082034932656       -1.19583705555993        2.09919899553231
C            2.46755945914698        0.03574650801206        2.10993680075236
H            0.95699596859077        3.81816808320843        2.07292586540693
H            0.67169184998144        2.32328376281094        2.96237599152670
H            0.76227411620194        2.30553120892161        1.18882788925445
H            5.20110729789588        1.98679774029814        2.26270744151656
H            6.29689502284392       -0.20846361009086        2.26632767276057
H            6.96430310273988       -1.94947255828995        1.29016051943042
H            8.03425234741962       -4.15192746489629        1.20238499966030
H            3.40668662616737       -3.71948409379802        2.93140188748301
H            4.71203048481873       -9.15527054300066        3.03745044280552
H            4.62266710619917      -11.08212323366241        2.22041405695742
H            4.66764669455745      -13.50888816518343        2.36803803583140
H            5.03711006145671      -15.73978767583281        3.39701513758118
H            5.96282718921596      -17.00715054567468        2.59415891969112
H            5.09647108585006      -15.81762496570293        1.62378137224389
H            8.91244456775083      -13.44300901851335        2.56162689216015
H            8.88949893684188      -10.99185386376808        2.46419839565434
H            8.69880963541393       -9.17701234262758        1.42818592781699
H            8.65298400130370       -6.73405027568383        1.24974083549266
H            2.46063193305200       -2.07856575579219        2.02596402357253
H            1.39454948095077        0.10674625353094        2.07227211674151
