40
 energy: -8.544850948876 gnorm: 0.000839408068 xtb: 6.6.1 (8d0f1dd)
C            1.29087412361528       -0.07685694123436        0.62650499366224
C            2.49460799599499       -0.00336097955542       -0.25091508677281
O            2.89858808444726       -0.99809179238375       -0.81097361400495
C            3.18406773886736        1.28547992299105       -0.43608390324742
C            4.36920275611530        1.30806197342073       -1.16105541440239
C            5.02645514953428        2.48898568769182       -1.40116403183160
C            4.51187543525524        3.69896022960772       -0.93378900967807
C            5.18042455951712        4.96828465481897       -1.25905427108284
C            5.53827257318590        5.85287096514338       -0.27139621199933
C            6.25966595485344        7.01917243240309       -0.55561489542518
C            6.63889051110271        7.30932183748028       -1.83121685200243
C            6.26415494938846        6.43377757600166       -2.86272501907794
N            6.53200005919206        6.54988098407615       -4.17444852377993
C            5.94337935167543        5.51920643064772       -4.76183715116848
C            5.26277907924803        4.72439051086972       -3.83768786461189
C            4.41953036485582        3.56270574539643       -4.14890451560234
C            4.89726499066985        2.52368547231856       -4.94838053950981
C            4.11635800691511        1.41910904462915       -5.20264980878223
C            2.84348559748063        1.33229864906764       -4.67476112309892
C            2.34685158792667        2.36011294297895       -3.89853580178012
C            3.12349171974313        3.46664714436770       -3.64158353768353
N            5.50229357849473        5.29097550794808       -2.59040831277884
C            3.33785385893552        3.67104493597112       -0.17844788031129
C            2.68422910973040        2.48717438305037        0.06302855690690
H            0.95513626588722       -1.11037820662685        0.70592601423838
H            0.47010795050795        0.51129549086659        0.21628797560188
H            1.51400968980972        0.28230138280448        1.63111642252517
H            4.75002083768561        0.37772297094842       -1.54669577687837
H            5.93534622140905        2.49960510084797       -1.97735049383924
H            5.28768447314563        5.61878388321273        0.74857355478448
H            6.53113291934690        7.68370511235200        0.24806474825007
H            7.20547661948061        8.19194286295041       -2.06773280014225
H            5.95449127583842        5.35944393504455       -5.82974456403112
H            5.89507899836781        2.58856323159771       -5.34641595212703
H            4.50211091103786        0.61647544003537       -5.80944814501343
H            2.23887595852270        0.46075924326806       -4.86472779195509
H            1.35480884997685        2.29039969741756       -3.48366222727034
H            2.74525681295070        4.26729611263365       -3.03002405246025
H            2.93348865916725        4.59816815161656        0.18929083635944
H            1.76819642012004        2.48757827332177        0.62712207001992
