34
 energy: -7.404926999991 gnorm: 0.000741973633 xtb: 6.6.1 (8d0f1dd)
C            1.86267163298196        0.85866847358733       -0.38631904626808
C            2.52234815597194       -0.29400443930836        0.29125548741534
O            2.53993910131060       -0.35432779626018        1.50034067067453
C            3.15125239602803       -1.35571861274508       -0.51090129446656
C            3.72150651381682       -2.43777614956944        0.14799788896433
C            4.31765693109127       -3.45423232484179       -0.55450463858656
C            4.37569196075455       -3.43027849394004       -1.94752008893056
C            5.01759184275824       -4.54909500014239       -2.64650510720287
C            5.34019297696277       -4.45124059187707       -4.02691650390904
N            5.90729319311454       -5.36456630240791       -4.75466679420777
C            6.18318511930117       -6.48212737348693       -4.04609511745913
N            6.76435806611619       -7.60242327173242       -4.49040782984555
N            6.83749192401327       -8.42409280621474       -3.44188534444066
C            7.36398721854417       -9.70919818401023       -3.38156097577753
C            7.35184718384658      -10.39344622808687       -2.21196114236711
C            6.81224844502985       -9.82158376593142       -1.04302019748668
C            6.29026176792756       -8.56345001570942       -1.06856798545840
C            6.30876936852476       -7.86870227015639       -2.28001312648837
C            5.87397580615246       -6.58748472673871       -2.66106961167212
N            5.29113901734229       -5.62984711320783       -1.93307640523504
C            3.79778827748542       -2.34215930978363       -2.60775038332014
C            3.19941260961460       -1.32611872907062       -1.90361741098460
H            1.42500177928687        1.52047561317161        0.36021880103160
H            1.06335676830423        0.52184342026750       -1.04612144885466
H            2.58077463581122        1.43629695407443       -0.96790638734212
H            3.68331857723123       -2.45730532980561        1.22416519745512
H            4.75273936866653       -4.29164882768657       -0.03748166932752
H            5.12193822454235       -3.52946974415687       -4.53889778265565
H            7.77094524459632      -10.12824380682782       -4.28328491863790
H            7.75991775332459      -11.38963941542848       -2.17135953970663
H            6.81309570600600      -10.38504752606156       -0.12478450807202
H            5.87161001580980       -8.10148418657307       -0.19211313873079
H            3.79822544088598       -2.30685053084409       -3.68195790079315
H            2.75857697683909       -0.49842158849028       -2.43077174731365
