41
 energy: -8.519526889590 gnorm: 0.000848853080 xtb: 6.6.1 (8d0f1dd)
C            1.31972906095649       -0.63808139432597        0.49795807318844
C            2.44577853257778        0.16227970251470       -0.06452313542737
O            2.76515083577592        0.02354281161870       -1.22428025271749
C            3.16397102425776        1.11764912943976        0.79602706525539
C            4.17850660173004        1.88713384260219        0.23683683364335
C            4.87667163612733        2.79503488504852        0.99396978282177
C            4.58055544402703        2.96062306159848        2.34499212213298
N            5.27266070604492        3.87783146456582        3.11047983294805
N            5.07555718629660        3.96186515727148        4.33183784192726
C            5.73502657576492        4.90523951081299        5.09336111661096
C            5.58486249004166        4.92999111988073        6.47905590461279
C            6.23099603955891        5.87508004319805        7.23388405130893
C            7.04150588518143        6.84198222381126        6.63205692163345
N            7.69143464821116        7.80332135463490        7.42586482615246
C            8.19881143505790        9.06717453571040        7.04758671281857
C            9.20502914704809        9.66791791388002        7.80329129763457
C            9.69254423111766       10.90943502183052        7.46472543311434
C            9.17992178017763       11.58175743090218        6.37282066122293
C            8.17172995858272       11.00879194175858        5.62330852192547
C            7.68267149216603        9.76680815352997        5.95763148993545
C            7.20566658898976        6.79850123421640        5.24485946696325
C            6.56297253403935        5.84929305720673        4.49206730269704
C            3.57024499149777        2.18770732544539        2.90908469653741
C            2.87160689085942        1.28157254940073        2.14978992662245
H            0.88238105966376       -1.25698238093003       -0.28457927137622
H            0.53628085323854        0.00830613856428        0.89293679653090
H            1.66587599030415       -1.29770581604243        1.29308564106684
H            4.40325425436814        1.75135698392286       -0.80764055008625
H            5.66083890221733        3.38938221617258        0.55895377743259
H            4.95219188260999        4.19309534113192        6.94180615255085
H            6.10840354854894        5.89254706733617        8.30259299254786
H            7.79112306018597        7.56930728698626        8.41101334976588
H            9.60196856001344        9.14054505816326        8.65298411813897
H           10.47456819893262       11.35950287212040        8.05380940040659
H            9.56182957768243       12.55446275856852        6.10970991613087
H            7.76220847085852       11.53931261490490        4.77939198973774
H            6.86705327325312        9.34075232995431        5.40135610118831
H            7.87519883097249        7.49661118069124        4.77547694246475
H            6.68916775004307        5.81267350644539        3.42451936482542
H            3.34825982639167        2.31895514779315        3.95346984148802
H            2.09215024462630        0.69300561766481        2.60052694362204
