53
 energy: -10.921978223806 gnorm: 0.000767427338 xtb: 6.6.1 (8d0f1dd)
C            0.99553573009256       -0.13052925674276       -0.41145813556236
C            2.36820745084980       -0.23765179379020        0.16341034467253
O            2.80812251402207        0.65565218527878        0.85112941614188
C            3.18320287874695       -1.43656965629100       -0.11390533215509
C            4.44234202761503       -1.53650842580713        0.46256112079588
C            5.24110837586055       -2.63314835814211        0.23309718402814
C            4.80382428996459       -3.67017257092548       -0.58512326516517
C            5.61746391128307       -4.79559704390543       -0.82471980373851
C            6.30750141337652       -5.78038066087712       -1.04159215602924
C            7.09228047276637       -6.92144494607180       -1.30311666934799
C            7.03735818797266       -7.55160621550835       -2.54248692596364
C            7.79950180699488       -8.66768060922477       -2.80090577751285
C            8.64540594887859       -9.19684148882438       -1.82777622697153
C            9.46096343259144      -10.40109610670137       -2.10387111773555
C            9.60758246600091      -11.39870578552948       -1.12861732990748
C           10.37256396750833      -12.53413116469651       -1.33040053210744
N           10.55191506029296      -13.45762891838856       -0.27334680053157
C           11.87478908584468      -13.98067915065323        0.08505462418113
C            9.55766723964206      -13.58543592433906        0.78970352181331
C           10.99113122004764      -12.72188031894781       -2.61520548263479
C           11.68229215914322      -13.89859837285223       -2.95831170339911
C           12.26496072059606      -14.04397723192548       -4.18488886189732
C           12.17411118069284      -13.02553530341133       -5.13635975372199
C           11.48313527190114      -11.88548636745007       -4.85583903617894
C           10.86159924547697      -11.70900556338058       -3.59866157801130
C           10.09746036784807      -10.56102494032396       -3.31646696052114
C            8.69921790738689       -8.56389721996521       -0.58702809935226
C            7.93727683353538       -7.44698237571031       -0.33044757352923
C            3.54206637197405       -3.56952879825460       -1.16375735328739
C            2.74372253939008       -2.47246905981030       -0.93371562954914
H            0.52427678407812        0.79073374277015       -0.07061758257064
H            0.36964273041968       -0.96476336031873       -0.09434149454854
H            1.02698053014835       -0.10859654927265       -1.50078368711393
H            4.77920080172314       -0.73203475694273        1.09421075802024
H            6.21590332141487       -2.69990977457068        0.68514089693022
H            6.38429624605661       -7.15294144065707       -3.29992323907341
H            7.73656290809537       -9.15277769163508       -3.75956474586255
H            9.12809660176466      -11.25712414877867       -0.17856910888518
H           12.64522713715389      -13.53954831537963       -0.54441154995211
H           11.89611177885779      -15.06337740193126       -0.02452739814061
H           12.10649213667595      -13.73275528604099        1.11923895810557
H            8.55397760228203      -13.50920024345707        0.37620399244461
H            9.69664077925256      -12.80350562212430        1.53379400454131
H            9.65261163137812      -14.55312690376785        1.27836864933707
H           11.71798464508227      -14.70877613637847       -2.25345863138220
H           12.79253636797289      -14.95223079082705       -4.42622367467705
H           12.64100878260676      -13.15072087195169       -6.09953652011902
H           11.39492237328594      -11.10753955730369       -5.59448208962267
H           10.00793647618110       -9.79534868451915       -4.06524475827679
H            9.35836160696150       -8.95145845346682        0.17034271147677
H            7.98790413377480       -6.96413874806870        0.63049342336421
H            3.19702876253197       -4.36766878422818       -1.79872112421527
H            1.77203578399993       -2.41288877795714       -1.39166189659169
