53
 energy: -9.196433606053 gnorm: 0.000535368525 xtb: 6.6.1 (8d0f1dd)
C            0.35548371168233        0.67132699546579        0.35851026763284
C            1.59765916779910        0.09128115834578       -0.22948844744499
O            1.78357508368030       -1.10398863065001       -0.19301376692896
C            2.59490418329870        0.98158372814446       -0.85447624025828
C            3.73959044527843        0.42014045818512       -1.40386066992362
C            4.69741502471468        1.20695322385737       -2.00101540259758
C            4.54036091336512        2.58779301678079       -2.06729821017000
C            5.51892421617329        3.39685773563749       -2.67838138705440
C            6.36880776524822        4.09543625606062       -3.20993643102649
C            7.34952748163944        4.89850418523875       -3.82583060217406
C            8.68199194660680        4.83632330822286       -3.42754150118643
C            9.63012420025570        5.62495671127127       -4.03978446058955
C            9.26676348762096        6.49645721356954       -5.06715861447239
C           10.23112689122880        7.32937889303647       -5.72323673940343
N           11.51798321221001        7.43312163133957       -5.51837526603862
C           12.32810522015730        8.21343422334299       -6.14743553385972
C           13.58244258823347        8.28499918563362       -5.90032638503619
C            7.07669059149975       10.98673916459365      -12.78560543082113
C            5.59968004891167       12.93955310711290       -9.95417927710263
C            3.71047544307583        9.74108473258980       -9.86724489934966
C            4.06301808495447        9.51574993487569      -11.16562305178752
C            3.52189696276446       10.27681556501377      -12.16339384202939
C            2.60779825805797       11.28757992971240      -11.84886388100714
C            2.25755238174229       11.50961079247459      -10.54903948636854
C            2.81497333268273       10.72137991214606       -9.51278255060070
C            2.47430826636735       10.93254213968368       -8.20669051703157
C            7.95653964235204        6.53811757223183       -5.43760651247128
C            7.01536820549195        5.77733090934081       -4.85322472995715
C            3.39316002881749        3.15086254195672       -1.51621438025802
C            2.43519373919186        2.36317631504015       -0.91952364516930
H           -0.26430957451819       -0.12565851123625        0.76801228194976
H           -0.22888929921434        1.19657530598578       -0.39685197275147
H            0.58945215797552        1.36389085003696        1.16691913024377
H            3.85849068431437       -0.64892408236837       -1.35183919427912
H            5.58081177791249        0.76084338825120       -2.42485570428783
H            8.96033869186460        4.16386898667499       -2.63436990920202
H           10.65990053028744        5.57527362686091       -3.73031453452304
H            8.46542425188595       13.08014769390682      -11.28771815244391
H           14.34819653249520        7.94908966580988       -7.55102024089985
H           13.83851613629519       10.05674466353082       -6.53794479716132
H           14.25280638271296        6.54754482707848       -5.66683353923607
H           13.69850434063563        8.89894328232355       -4.14031420386885
H           15.36747609899116        8.62845856139771       -5.37597430261134
H            5.42050262831323       12.22769965444302      -10.66959739962915
H            4.77318090928576        8.73776438150682      -11.38977154361401
H            3.80205513436057       10.10460883998841      -13.18969684467085
H            2.18330315418267       11.89035299770466      -12.63462542270469
H            1.55605596862033       12.28512629999465      -10.29354320769536
H            2.87025514611170       10.36631282653255       -7.41697015192901
H            0.99215975617110        8.77475532994950      -11.11289944621698
H            5.99289712523204        5.84625056616777       -5.18162527123092
H            3.26459338585148        4.21877342493710       -1.56400341247177
H            1.55484756219185        2.81728549890582       -0.49979058456703
