39
 energy: -7.568737619485 gnorm: 0.000633386595 xtb: 6.6.1 (8d0f1dd)
C            1.36933066855245       -0.05378163275546        0.61855272678691
C            2.50051324644569       -0.21563818894089       -0.33974878712814
O            2.93968390954771       -1.31988536311492       -0.57496125015685
C            3.07683188101925        0.96764723629576       -0.99583944211682
C            4.10709960671118        0.78742630727782       -1.91298246426959
C            4.67432778722547        1.85644118198051       -2.55995494646647
C            4.22907434230325        3.15465831832410       -2.31034184700588
N            4.79848851109214        4.23611383080921       -2.99133908623299
C            4.47780841658017        5.58317693006850       -2.81860088526389
O            3.66755107115521        5.95768053073355       -1.98833288148279
C            5.16164801701825        6.58342706626349       -3.66184178671226
C            5.21526234454978        7.90397714293945       -3.23101739839150
C            5.82973137973511        8.86943406720444       -3.98690035729293
C            6.41403803411348        8.55425896067888       -5.21845415384961
N            7.04020560982732        9.54064049379189       -5.99813285445314
C            7.13491718608644       10.92724525311168       -5.54369513489863
C            7.60364999185704        9.23391152661514       -7.31219946307586
C            6.34359426353322        7.22597052406993       -5.65286805289491
C            5.72897102752965        6.26290218591354       -4.89305149872047
C            3.20243306353411        3.33329938427779       -1.38599762647610
C            2.63409949927220        2.26512539913347       -0.73989794079135
H            1.04795174408590       -1.03168038850849        0.97568567344491
H            0.51543541811392        0.42686312240589        0.14146546308010
H            1.66892857906909        0.53808114529259        1.48329639635121
H            4.44716315224250       -0.21628589210360       -2.10438455384900
H            5.46770504555321        1.70251402965032       -3.27005846897858
H            5.54807116186515        4.01292087909091       -3.63705119287860
H            4.75492687456500        8.15154626580647       -2.28953412449942
H            5.85744916433152        9.88378444430005       -3.63196828654382
H            6.13906963747347       11.35064351475783       -5.42994657280221
H            7.68571366553013       11.53785494513853       -6.25564181431983
H            7.65328449485939       10.97119864890276       -4.58803851489811
H            6.83073611698887        8.83153403286394       -7.96391405598289
H            8.40391828914203        8.50335450957378       -7.21324475081114
H            8.01319911931386       10.12506449886870       -7.78252729017746
H            6.77265950416515        6.95913910215778       -6.60191265917648
H            5.65532959714012        5.25648755152646       -5.26438961173532
H            2.86595872947774        4.33531065188427       -1.18989392650881
H            1.84223984838976        2.42830778371585       -0.03029657882639
