31
 energy: -6.669972958300 gnorm: 0.000440851205 xtb: 6.6.1 (8d0f1dd)
C            1.22510454501399       -0.21719735950601       -0.44390229783490
C            2.57592012622271        0.09975906098069        0.10930307438487
O            3.12743206568314        1.11679305166243       -0.24505729756822
C            3.20149435130661       -0.83990995835886        1.06440272542445
C            2.72567116505454       -2.14703871732586        1.16779346029349
C            3.27036754031813       -3.05168279839240        2.04548291717594
C            4.33016317121930       -2.69186201646383        2.87790439350337
C            4.91291966010574       -3.61042195628648        3.80413587818092
C            5.93423048653499       -3.24193917627305        4.60809835619927
C            6.47029045785796       -1.91775133821875        4.56115497747680
C            7.52268872955877       -1.51213847211517        5.38266158698673
C            8.01826554471446       -0.22726529836536        5.31214664492952
C            7.48472306960492        0.68538610516177        4.42710507922663
C            6.43160740579896        0.32943291072209        3.58373625748593
C            5.85592967535643        1.24502775513179        2.65168552764613
C            4.83653846564911        0.87190188455383        1.84832168667424
C            4.28079381125222       -0.44291314182682        1.88609736593983
C            4.83822954942581       -1.37420957995012        2.79871586860014
C            5.91578456637884       -0.98657428290170        3.64948168496342
H            0.80090015494582        0.67251941123386       -0.90831775545453
H            0.54231301396107       -0.54471965605366        0.34012115273133
H            1.28751687547189       -0.99383453808857       -1.20582151232019
H            1.91439065215572       -2.45892892128274        0.53373785876889
H            2.88132261782711       -4.05378334089541        2.09989280721181
H            4.52048105758619       -4.61138541025813        3.85123712270362
H            6.36151473171734       -3.94625147291736        5.30048520837794
H            7.94609606313392       -2.21750233859790        6.07655119136480
H            8.83149010863097        0.06641610241129        5.95538637380964
H            7.87862964733615        1.68577331232707        4.37833733269748
H            6.25380742317215        2.24338579052485        2.59620031591245
H            4.42615326700503        1.57218438936822        1.14395201450785
