42
 energy: -8.471159380072 gnorm: 0.000956856910 xtb: 6.6.1 (8d0f1dd)
C            1.11980553745582       -0.30675172716707        0.40160455890188
C            2.32033095139822        0.24620218825502       -0.28927845468843
O            2.73218269251656       -0.28250389925613       -1.30144641127357
C            2.99692217373365        1.42142153269854        0.25298950427994
C            2.55493607437497        2.08245462243590        1.43151671175312
C            3.22343445254904        3.15295428668242        1.91406155066882
N            4.34227064546634        3.61360565741631        1.24691579117702
C            5.22174610023359        4.64896783250685        1.53160914059649
C            6.20179052052555        4.71088525994548        0.55596497010581
C            5.95034550535254        3.70591100892976       -0.40022892851588
C            6.70938540626439        3.47398260683270       -1.61563001730492
C            6.14680532675607        2.83497621655800       -2.73055281872595
C            6.88117784302357        2.63881137939480       -3.86120905103214
N            8.17218411546285        3.07036914279486       -3.93206643395727
C            8.95897720027067        2.84157680122598       -5.14645904819754
C            8.74525633461221        3.70255812964543       -2.86953295733966
C            8.03671852297649        3.91378345819421       -1.72534170959314
C            4.78623862594156        3.01197728696389        0.07101351075898
C            4.10998146767123        1.89026191628586       -0.40979936378382
C            7.11194344925811        5.87065457471835        0.86282175555677
N            6.50844357821840        6.42104984193237        2.10202318103446
C            6.96664676375142        7.58937754545410        2.82909050398631
C            5.38563200295418        5.71395650261735        2.52171423149278
O            4.68166278456070        5.93221322263531        3.49275557760000
H            0.74442470532685       -1.16922754275070       -0.14809160811024
H            0.32029912160116        0.43179409999528        0.45297259196087
H            1.36321277446148       -0.63332659212275        1.41215040738452
H            1.68586167500141        1.71620301725491        1.94826860294820
H            2.92042075009538        3.66773974089033        2.80866055779907
H            5.11303899466175        2.54415554133140       -2.71090583084620
H            6.45353390765413        2.14913273123157       -4.71812005602214
H            8.30967930855792        2.59583277903089       -5.98416811638401
H            9.65232878995999        2.01821929137835       -4.98763578026008
H            9.52454686492107        3.73599256769156       -5.39997953022165
H            9.76816815324331        4.02380180730503       -2.95534425924410
H            8.49984647172191        4.40362309749184       -0.88819091768648
H            4.46127519133226        1.34901538366822       -1.26753880002588
H            7.10416483177215        6.61869359193369        0.06601134459746
H            8.13776313905464        5.54847195975569        1.05800373937396
H            7.88411475298214        7.97680326906129        2.39097971128891
H            7.14919083516404        7.32056472476066        3.86766592452685
H            6.19928165715790        8.36021514439130        2.79793622542287
