63
 energy: -12.202286108475 gnorm: 0.000834336198 xtb: 6.6.1 (8d0f1dd)
C            1.34591689868104        0.23495254224704       -0.44898069817901
C            2.55910681301532       -0.11134526884066        0.34513276396634
O            3.05051845451531        0.70907169977585        1.08780148807056
C            3.15886702183961       -1.44805498188218        0.22729626902125
C            2.60403063562527       -2.46556231865087       -0.59792189431888
C            3.19252797217912       -3.67849497113992       -0.69348263252183
N            4.34582366999880       -3.93703932013721        0.02363176701702
C            5.16834584040399       -5.05158875708491        0.10033323113811
C            6.22403554416613       -4.79047371488144        0.95976173218277
C            6.07519341291356       -3.49224524332776        1.47194301836166
C            6.94297338860554       -2.84542937226377        2.46014727859523
C            6.42954161754314       -1.95748126917491        3.40640360915134
C            7.24770066170475       -1.37504156056304        4.34448211865702
C            8.60788300186612       -1.65973384454515        4.37469746617709
C            9.44380520578269       -1.07253933358347        5.33463306893860
N           10.13977933288095       -0.59132472674077        6.13085866170820
C            9.12472126618842       -2.54653008108823        3.43774749744958
C            8.30803424283654       -3.13039323710073        2.49976745988932
C            4.90089744237258       -2.96923676319262        0.85888497654340
C            4.29839593361107       -1.70693206679813        0.94341143809441
C            7.09253313046166       -6.01457057863711        1.04857278182566
N            6.38237260382680       -6.96651587253886        0.15817174095995
C            6.83868192676942       -8.30639910866824       -0.22125795396829
C            7.57680394351802       -9.02206754892658        0.89838336467723
C            8.05603005880710      -10.41403808486770        0.51782499086611
N            8.80801748015594      -11.04895818708206        1.58096345759777
C            8.80278193478450      -12.42125993418901        1.74489994609282
O            8.08784357692862      -13.11755204705323        1.04470788437177
O            9.63779673676187      -12.90130276468135        2.71906958059846
C            9.61454829103803      -14.34409787515010        2.86902957674949
C            8.20555721838441      -14.80269535882345        3.26315333254830
C           10.06037983651143      -15.01114908066294        1.56240518694838
C           10.60207385776361      -14.69971993359605        3.98853433871231
C            5.24818744114982       -6.41441216117956       -0.43179124452505
O            4.48799831903045       -6.94354749134512       -1.22334317551783
H            1.06405434908079        1.26909571295719       -0.25339504614706
H            0.50350552460067       -0.40012370195611       -0.17662658537925
H            1.53314333376109        0.13407061877456       -1.51766253946507
H            1.70713435599902       -2.26072967303253       -1.15491232512134
H            2.79901583280659       -4.46265760871251       -1.31596370741216
H            5.37309373429656       -1.75674690139630        3.41987992014165
H            6.84327092674607       -0.69305594137632        5.07310980342282
H           10.17791783117000       -2.76947356132393        3.45916496143005
H            8.72127538770857       -3.80844525609820        1.77430789856312
H            4.72923475748094       -0.92541140359436        1.54124433741113
H            7.14136448353065       -6.40157857147501        2.06963408221013
H            8.10257915486483       -5.82857592474655        0.67503597054887
H            7.47338722396969       -8.20899033870562       -1.10577517195562
H            5.95940688509516       -8.87752521438302       -0.53366759019001
H            6.93262478958670       -9.08609054630696        1.78153440099649
H            8.43487196008370       -8.41912794971516        1.21209529702393
H            8.68263065751050      -10.38012419604226       -0.37982607058187
H            7.20798592872558      -11.06377169901667        0.27359828110088
H            9.45668363148014      -10.46637922438969        2.10948285066362
H            7.49335882681490      -14.54351237683615        2.48152726937652
H            7.88963844553439      -14.30782377700790        4.17946308425808
H            8.16979372378829      -15.87960989254072        3.41947197441679
H            9.37356702050792      -14.75733269975642        0.75674047005405
H           10.08939209662425      -16.09498699393686        1.66210435243069
H           11.05113607033824      -14.66169771587328        1.27845438818972
H           10.31152659930581      -14.21074959283653        4.91641286424663
H           11.60216548567722      -14.35565438747899        3.73155847277578
H           10.63814627028712      -15.77454256682487        4.15916592910999
