60
 energy: -12.049205529395 gnorm: 0.000694239529 xtb: 6.6.1 (8d0f1dd)
C            0.89238085104550       -0.18458666268754       -0.09837514474387
C            2.07948599348711       -0.08922155260559        0.12119444884161
C            3.46898247383255       -0.00808463672536        0.38303419942084
O            4.07979923618334       -1.24199553891636        0.77104478401745
C            5.42712170096465       -1.17594770809125        1.00878186979598
C            6.07981249140897       -2.37201876269685        1.38373690946460
C            7.41820100884002       -2.40174606186490        1.63252884782485
C            8.20522731116164       -1.23707888234195        1.52647656243579
C            9.60348359543354       -1.30359705378663        1.78559245741146
C           10.46422194667344       -0.25083343305634        1.71635866544441
C           11.84799528072785       -0.32775076118042        1.96121927567226
N           12.69723637091168        0.73334282070306        1.88548014410420
C           13.99760595191350        0.38988827135468        2.15679437715646
C           15.06431335083819        1.31254222238337        2.13402574884647
C           16.46213442344577        0.89738955285474        2.40167186807218
C           17.06305579076525        1.15362227043853        3.63677651759603
C           18.35861206696359        0.76115179125940        3.88229178773984
C           19.08159945769171        0.10625056124714        2.90479539068450
C           18.50518349573190       -0.15529119381851        1.67742455051749
C           17.21035533858396        0.23487659885921        1.42519460574923
C           14.72958516649846        2.64641634803345        1.83006817012673
C           15.52979092468031        3.82007350423136        1.69659305001720
C           16.99832719930191        3.92462795298105        1.86916868719589
C           14.67706503828203        4.86552386228330        1.38227477587575
C           13.35694194407398        4.37588661016515        1.30288681971055
C           12.11489937552551        5.10242039119642        0.98411761239963
N           13.43051596021827        3.06886310119805        1.56677732425399
B           12.21606530986848        2.14450427771840        1.55490666968774
F           11.64189932167649        2.15194471612124        0.28748053639960
F           11.30861067469905        2.56222558877596        2.52359610498240
C           13.96388680745527       -1.02245797854716        2.44677988107858
C           15.11641888029044       -1.88384575361099        2.80283212628252
C           12.66419360892676       -1.44373885984965        2.31702889334685
C            7.55638145547367       -0.04001567213095        1.15718098372509
C            6.21684840482274       -0.00757042120623        0.90721159724080
H           -0.15218818103142       -0.27611886393826       -0.29161704490062
H            3.64962958373153        0.71471133599214        1.18778565976221
H            3.98983825327174        0.34846250553557       -0.51379607592665
H            5.48520522764259       -3.26438070545668        1.46518520208228
H            7.89281641128240       -3.32584983360594        1.91447556490570
H           10.00636593018170       -2.26402668999549        2.05293759487331
H           10.09471916232201        0.72286935651570        1.45422033021215
H           16.49275311307298        1.65970845127982        4.39642780129564
H           18.80972806018748        0.96397833443043        4.83970218028660
H           20.09582293679837       -0.20093361124842        3.10033801804335
H           19.07052608331760       -0.66651546887989        0.91563895508816
H           16.75607194478808        0.03616372758819        0.46991473337498
H           17.51070576665508        3.13177688653415        1.32389494594794
H           17.27237266585616        3.84710183384433        2.92150388463327
H           17.36933390245227        4.87961541741515        1.49577197084721
H           14.97332620343930        5.88692318313825        1.21567295995225
H           12.29384291053016        6.17282190975340        0.88017431389362
H           11.37651526694865        4.94880731028598        1.77192209063087
H           11.68699347829190        4.72912571103761        0.05316634674852
H           14.78099604085164       -2.84168999775170        3.20166620530105
H           15.73730841963362       -2.08346285027767        1.92917017729714
H           15.73895320150971       -1.40780569078470        3.56078339082806
H           12.31894490024836       -2.45198483351367        2.46342227270024
H            8.12900083174860        0.86564596601473        1.06965128386031
H            5.75582967787142        0.92228710741169        0.62928613988736
