62
 energy: -11.679720599242 gnorm: 0.000584516524 xtb: 6.6.1 (8d0f1dd)
C            1.38969766138822        0.39503330271492       -0.06364682259060
C            2.68130681058227       -0.32310432470486        0.13321217067673
O            3.21308051942746       -0.32435153066933        1.22115114344704
C            3.30818315748328       -1.03047210943759       -0.99235916987141
C            2.71110614375467       -1.09601110300585       -2.28241152407706
C            3.32224065097606       -1.74617825706164       -3.29735034531056
N            4.54141778510386       -2.36084707389201       -3.07898341214002
C            5.39699050168160       -3.06163534133395       -3.91615026118085
C            6.51751338518304       -3.46107309308676       -3.20400925024428
C            6.38032112655309       -3.03295440397490       -1.87508753058741
C            7.32019601534746       -3.28777186406580       -0.77831226994221
C            6.87174038480516       -3.50283664906783        0.52475619736066
C            7.75991420572520       -3.76306694771581        1.54176050724136
C            9.11879766796454       -3.82072220866614        1.29024622481061
F            9.99238565980163       -4.09058504410295        2.29266101085603
C            9.57591492790049       -3.61158726870334        0.00185541133171
C            8.69221785553629       -3.35156780625154       -1.01878762821340
C            5.14254231360781       -2.33184259834895       -1.82207837119087
C            4.51453184003287       -1.64346613837672       -0.77536847695489
C            7.42804153734474       -4.22903884564223       -4.12161151166639
N            6.67038273539174       -4.21340931255885       -5.39795241654721
C            7.13226397524904       -4.73131651471190       -6.68871066645000
C            7.99342049085802       -5.97687970489191       -6.55587556574735
C            8.47988283281876       -6.52267451214728       -7.88932030337556
N            9.34537626571051       -7.67371641468069       -7.73287406812512
C            9.41737718438402       -8.65495150708688       -8.70365016473498
O            8.67873963907028       -8.61176497034311       -9.67260217280076
O           10.35362473011656       -9.63118063113199       -8.48559453187838
C           10.40872258562850      -10.64803555038251       -9.51894728958171
C            9.06012090542377      -11.37189410312696       -9.60879693141995
C           10.77476551712037      -10.00608889913853      -10.86238119284675
C           11.50086195825370      -11.64718015863908       -9.11431461123705
C            5.47250638923303       -3.50832191965031       -5.30925473042239
O            4.66428792023896       -3.29834962378405       -6.19646268183951
H            1.09747001690026        0.88484785156162        0.86457586660440
H            0.59496762980020       -0.29609386917634       -0.34345675285070
H            1.47889662081653        1.16071699009357       -0.83393548170841
H            1.76282809328731       -0.61669031391717       -2.44827146033950
H            2.89717966643734       -1.80444018761762       -4.28382552265791
H            5.81505902772671       -3.49657798307938        0.72529832610220
H            7.41609566835779       -3.93204497542482        2.54697648772813
H           10.63492334082665       -3.65717204805506       -0.18098900917144
H            9.05687503081270       -3.18110309401953       -2.01626402052893
H            4.97386400041926       -1.56750839661534        0.19265116771733
H            7.58071607980229       -5.25384660782529       -3.77360202002624
H            8.39407991321211       -3.73417903634268       -4.24871002405125
H            7.67862335865145       -3.93234552578047       -7.19697079824227
H            6.24659200843907       -4.93551040235761       -7.29802316083223
H            7.43587966437813       -6.75506999778429       -6.02362506519807
H            8.85695844112668       -5.75646986562786       -5.91976558031531
H            9.02061734345964       -5.75428602218473       -8.45244149350151
H            7.63403816377782       -6.82306106508877       -8.51831587903951
H           10.01442438134717       -7.65677277333997       -6.96369801802483
H            8.27376971881475      -10.66937559663297       -9.87960136628234
H            8.80046677915860      -11.80835987796397       -8.64630466550472
H            9.08632998268916      -12.16470147499025      -10.35457540337191
H           10.01390834090778       -9.28402700236760      -11.15374226913940
H           10.85831446233145      -10.75507799605839      -11.64817126424667
H           11.72303819899600       -9.47799586172363      -10.78340419385516
H           11.26664572861063      -12.09013456347020       -8.14819874995458
H           12.45972325103065      -11.14042589822932       -9.02314890357167
H           11.59898180820074      -12.44603127831079       -9.84769951048243
