64
 energy: -13.241491675217 gnorm: 0.000625482017 xtb: 6.6.1 (8d0f1dd)
C            1.36623047175380       -0.79433517107735        0.28567249517074
C            2.53574535691823        0.07905795923974       -0.03306107996673
O            3.01400495637726        0.06315102936423       -1.15419325221355
C            3.08810195310194        0.93605931444637        1.00333551419473
C            2.54695995835591        0.98021493581415        2.32290545389968
C            3.09080765991355        1.77306679905401        3.27109803733062
N            4.18796955793758        2.56259518502395        2.96147743660143
C            4.95755539792163        3.43478247047763        3.72164921920187
C            5.96103376058192        3.97475061367338        2.92737105040004
C            5.83458129632202        3.46609850219703        1.62498176569301
C            6.65508692169816        3.83833564562407        0.47053372617960
C            6.12970460477711        3.84582826839274       -0.82630111999935
C            6.89987540060839        4.21601131226131       -1.90080683164313
C            8.23354844338961        4.60057268547707       -1.72907973313672
N            9.01574920295107        4.96933475456754       -2.81739601449621
C            8.75839854736480        4.60543762053918       -0.43274398250234
C            7.98596172200370        4.23528687278754        0.64006247746726
C            4.72641128447204        2.56348648246487        1.66962613032524
C            4.17701332498333        1.72955807266353        0.69602132383501
C            6.76104533005017        4.94451787304228        3.75156434484838
N            6.07243625428726        4.88429360219418        5.06398561563973
C            6.48340519881601        5.58769810443281        6.28236388335452
C            7.10549685592169        6.94817924896526        6.00462056793895
C            7.51067264104556        7.69623610096386        7.26669036180685
N            8.14908366575576        8.96660229717351        6.98178671883286
C            8.14699584173904       10.00522674318983        7.89852398786500
O            7.53499582941938        9.89607226065083        8.94961840761404
O            8.86887568385846       11.11281378075588        7.52070981887242
C            8.84788993322361       12.20788157248064        8.47650671898383
C            7.41016346189071       12.70037162264583        8.67515099432343
C            9.45805703935293       11.75617742663595        9.80789045766797
C            9.69628555720956       13.34605246496252        7.89249480734519
C            5.00965663839115        3.97849978221354        5.08006516506849
O            4.27941888658585        3.69517398231622        6.01791769691480
H            1.06053024537755       -1.34758976967835       -0.60216592090326
H            0.51326151246386       -0.20344703407446        0.62119823143047
H            1.61737221386526       -1.51816289146576        1.06178406563956
H            1.69750557261431        0.36581815165224        2.56403964152620
H            2.70488318708086        1.81682381607317        4.27346993144921
H            5.09435958785677        3.59416945415394       -0.97329122868647
H            6.48259727402240        4.22170425388209       -2.89296830732612
H            8.73505911131201        4.72536813877346       -3.75841450432457
H           10.02409492000698        4.99893527650158       -2.73996377354283
H            9.78196248950383        4.90581479070127       -0.28883517687401
H            8.40710551704355        4.23471823879916        1.63026389082055
H            4.60532200866199        1.67098468873546       -0.28675521752340
H            6.72094720753589        5.95549823927997        3.33702753424951
H            7.80345470343668        4.63200609633621        3.85623847572283
H            7.18224140210067        4.94589554409899        6.82691280157624
H            5.60026968920615        5.69138178999096        6.92048869455602
H            6.40610011598704        7.56096754270649        5.42362136271077
H            7.98275522401166        6.82413785723567        5.35871013298234
H            8.19315896842655        7.09138980839933        7.87385974817082
H            6.63611408243233        7.89117886171347        7.89741773514775
H            8.71075119864448        9.02592920345585        6.13232326040802
H            6.78966445086200       11.90187682273569        9.07817717666778
H            6.97985281690454       13.00964748454477        7.72375448521915
H            7.37336876525742       13.54520589021364        9.36259233149672
H            8.87548945827445       10.94112725035420       10.23346770181690
H            9.48258986951314       12.57359138017243       10.52828928622043
H           10.47509651104621       11.39705634669571        9.65767779797522
H            9.29029826082029       13.66897062933293        6.93488965536056
H           10.71859067813044       13.00983978729698        7.72518195990700
H            9.72136431864527       14.20467213578004        8.56346606472210
