62
 energy: -11.704464523598 gnorm: 0.000785200473 xtb: 6.6.1 (8d0f1dd)
C            1.17185061467120        0.43357426054739        0.32307390792316
C            2.46018399912295       -0.03750050297359       -0.26152462861917
O            2.90338294686041       -1.12246137388030        0.04448254248852
C            3.18961686337460        0.81623330884156       -1.21015282046311
C            2.70189163518382        2.08598947250082       -1.62858037556709
C            3.40650316936150        2.84988805382711       -2.49290430014913
N            4.61490156904969        2.38992466269205       -2.98337462110759
C            5.54991618216990        2.94948049479598       -3.84275451550642
C            6.61544506175220        2.07624208153797       -3.99941002064991
C            6.36064280123899        0.91810707442396       -3.24971902785025
C            7.20960054383398       -0.27604516515183       -3.17251440381363
C            6.65434744597422       -1.55074150943306       -3.05916759021490
C            7.45728939856338       -2.66704624074454       -2.99891777969593
C            8.82999052928010       -2.53697498534543       -3.05437687275975
C            9.39810940532400       -1.28500082430563       -3.17415268136140
C            8.59845217102818       -0.16629903053179       -3.23501186102376
C            5.10958271933598        1.14230807724364       -2.60844878863106
C            4.38549913795332        0.35945848943437       -1.69908444727511
C            7.61401486023576        2.69096618835969       -4.94052359096829
N            6.96580071910728        3.98143963800921       -5.28412121014494
C            7.54362801641996        5.05278803313936       -6.09974250832220
C            8.42448249231057        4.53623668192258       -7.22619904468611
C            9.02525736453552        5.64349328634861       -8.07858347816282
N            9.90288974670850        5.13358577847747       -9.11211475141794
C           10.07997666700859        5.81144167641798      -10.30417000611475
O            9.42450660472957        6.81151486027148      -10.54303549861169
O           11.01916797913017        5.27851744434682      -11.14853053186472
C           11.18807261449526        6.00671365910568      -12.39236475929316
C            9.87170851700071        6.00717157140109      -13.17821177374828
C           11.64918824072353        7.43934148659649      -12.10002108543989
C           12.26785731758372        5.27753730511617      -13.20293828107879
C            5.75003214323038        4.16915920845783       -4.63014311759271
O            5.01344075546090        5.13813043134036       -4.68958745862173
H            0.79048161234010       -0.31206651321933        1.01984105243028
H            0.42081978691505        0.58426159218650       -0.45206674847035
H            1.30603219725975        1.36667475888663        0.86981382965941
H            1.76213051787731        2.44112159621612       -1.24473675626812
H            3.06496024406588        3.81650910439799       -2.81829171337182
H            5.58424527135026       -1.65863033405211       -3.04993693557985
H            7.01275718108753       -3.64491127229561       -2.91189573551806
H            9.45715950552205       -3.41198287756955       -3.00729735628133
H           10.46997974386306       -1.18311511156710       -3.21861229461965
H            9.04202894546797        0.81021154843903       -3.31754842763010
H            4.76338728230738       -0.58666836374836       -1.35909663003912
H            7.75645741825094        2.07848793290576       -5.83456698434343
H            8.57794476340798        2.86791377850173       -4.45687901484510
H            8.10788761947053        5.71474852440190       -5.43711515725916
H            6.71544526040170        5.64767554697400       -6.49724498711825
H            7.84774581250701        3.85600333505400       -7.86275634131694
H            9.23087986462951        3.92416907100265       -6.80781621061775
H            9.58943153484950        6.35006726937321       -7.46004013472396
H            8.23723058501238        6.22822193204853       -8.56690231285397
H           10.50371640627227        4.34589689036370       -8.87069517863909
H            9.09242679838772        6.50855618385685      -12.60684513251744
H            9.54314539833019        4.98685109637986      -13.36634922628614
H            9.98215028564627        6.51840623814482      -14.13321304007105
H           10.89720898521263        7.96480377521811      -11.51395418910335
H           11.81869184246194        7.99514630852119      -13.02086639929641
H           12.57325098148772        7.42955473842111      -11.52521449537224
H           11.96484039582523        4.25012840660967      -13.39572469100643
H           13.20235678503241        5.24900675525724      -12.64568788822588
H           12.44797674199727        5.77079449650053      -14.15692552036956
