34
 energy: -6.383709879970 gnorm: 0.000916314916 xtb: 6.6.1 (8d0f1dd)
C            0.95144531429661        0.15403420348790        0.25834143683778
C            2.09862607007201        0.40431481844149       -0.65811811663036
O            2.22874952563355       -0.27778369372704       -1.64911120281254
C            3.07098399968653        1.46845419719295       -0.36882330747681
N            4.00451370153871        1.83120203175091       -1.26276893012017
C            4.70467343053827        2.79923436153404       -0.69746200535396
C            5.81659185824906        3.47359527684590       -1.35846567636708
C            6.50844878281472        4.49320838126475       -0.71515617081454
C            7.55654233977970        5.12614483546641       -1.33617345544254
C            7.95421034834760        4.76367333859086       -2.62718356013308
N            9.03215573560559        5.41143441091869       -3.26479682740172
C            9.85978843863024        6.38882221134538       -2.55981537228466
C            9.39330744420614        5.11193567181276       -4.64875982978286
C            7.25100567779868        3.73718387513181       -3.26562219198278
C            6.20379054455023        3.10576308366553       -2.64263458968228
O            4.26494262309781        3.09457859459061        0.56772487109892
C            3.22996215339003        2.25151181311153        0.79033029756847
C            2.45383269347055        2.20888368671703        2.04578994914997
H            0.25587957285554       -0.54063967388899       -0.21127130453655
H            0.40840590361366        1.07337564987885        0.47313343308886
H            1.28480885833391       -0.29280714261400        1.19394984850383
H            6.20504249086472        4.77431937812938        0.27883676051350
H            8.07653560310355        5.91639833665713       -0.82530263975848
H            9.27507004369298        7.27773296860050       -2.33271584820586
H           10.71472526940889        6.68570018905449       -3.16306717934175
H           10.23368794292172        5.96005446464322       -1.63242633529085
H            8.51642052016606        5.18892364610018       -5.28831219190447
H            9.79976139639881        4.10494590295189       -4.71832082204360
H           10.13967300792635        5.81180902110611       -5.01804203312465
H            7.54127223964549        3.43223062148040       -4.25484213948644
H            5.66598391584964        2.31413790894876       -3.13556334094621
H            2.89499827720998        2.88642193068312        2.77627721568793
H            2.45646397603016        1.20836035659646        2.47671478002707
H            1.42327030027293        2.52249534353176        1.88306647844902
