37
 energy: -7.746060710792 gnorm: 0.000970500914 xtb: 6.6.1 (8d0f1dd)
C            1.12728542381132       -0.24733426200621       -0.24035096234591
C            2.29239307897549        0.40850206057811        0.40553041675278
O            2.67403219966538        1.48767151287837        0.02202378767825
N            2.96515066823864       -0.23808524159802        1.48177871882573
C            4.00767564060630        0.39937674983671        2.11193294174574
C            4.51516874275447       -0.39487561399821        3.11519844948381
C            5.60974750019860       -0.09016368436554        4.00175601534049
C            6.28235264381620        1.07244677639775        3.99394772246005
C            7.38744032764643        1.41247143341496        4.87030942116497
C            7.95301494718359        0.49201365789309        5.75705531119976
C            8.99910467403967        0.85263800042535        6.57196404301953
C            9.51001167766817        2.13537692696870        6.52761218891546
N           10.61930555738970        2.51289081848213        7.39828952176758
O           11.09663031814192        1.65333935928614        8.15093159794877
O           11.03782910363302        3.67705432549419        7.34918662262863
C            8.96564639108492        3.05766532452490        5.65495513424843
C            7.92064340116748        2.70383854096140        4.83606217571315
C            3.74438853278239       -1.60882064055118        3.10748870822359
C            3.81980641636885       -2.76708313272996        3.88978324014999
C            2.94245167193896       -3.78869137264218        3.63954409476272
C            1.99166079376313       -3.68411499646867        2.62061217360405
C            1.90652754847576       -2.55798189159567        1.84356225478703
C            2.78684817426605       -1.50067648923393        2.08568062143963
H            0.69241531897002        0.42507733761112       -0.97910249055779
H            0.35589696930006       -0.48373474876037        0.49153508999078
H            1.42862727330035       -1.15899077669037       -0.75476945248897
H            4.34102848334830        1.38390582151565        1.83149386331098
H            5.88101016418788       -0.84941209759806        4.71032310442272
H            5.98090352740634        1.82608105621800        3.28926114653978
H            7.57451317945065       -0.51319051410301        5.79900469868051
H            9.44003047113704        0.14669689476085        7.25542977309975
H            9.37704000834460        4.05277772116163        5.63349126609676
H            7.50043221028978        3.42710525122177        4.15855243856926
H            4.55615580441606       -2.84256595957595        4.66971603959396
H            2.98493312670844       -4.68628542156639        4.23388978087188
H            1.31682408295848       -4.50507698366422        2.44263923494288
H            1.17699394656623       -2.49025574248122        1.05863130741220
