77
 energy: -16.275569055796 gnorm: 0.000389735811 xtb: 6.6.1 (8d0f1dd)
C            1.32018153820032        2.14989552199525        1.98178203452829
C            2.50914039921313        1.25255875579188        1.64091288521956
C            3.07144759597366        0.60161192225303        2.91170113294440
C            2.02823152315896        0.24215071987401        0.58685163895044
O            1.87202299875854        0.63582647290528       -0.54900764820957
C            1.76096464658658       -1.17697164105762        0.90799172672600
C            2.15036035404294       -2.15123805504433       -0.00792410021148
C            1.90875719090286       -3.47947584826577        0.22714467962368
C            1.26328017683007       -3.90556830671321        1.39211181751451
N            0.99887456178167       -5.28599338041137        1.63308561183405
C            0.11398129158300       -5.69565058803059        2.68241161483986
C            0.30609232528483       -5.34320888926464        4.00848484481543
C           -0.62157431860817       -5.69361202185519        4.97000865551712
C           -1.74553199449594       -6.40989898192861        4.61729826149219
C           -1.93268047525151       -6.80664265886359        3.30862167914067
C           -1.00200411961460       -6.48404588772640        2.33087357706570
O           -1.14592880737006       -6.96741023132088        1.02688240497713
C            0.02342789959973       -7.04646132644958        0.26455886108045
C            0.10689060785275       -7.92581003834656       -0.80596689789780
C            1.28815783806118       -8.07610470543380       -1.50369784951812
C            2.40665387349238       -7.36000213985443       -1.13381060722757
C            2.33981629873538       -6.46457863503995       -0.08412438706101
C            1.15019641449813       -6.26494639797416        0.59776594529754
C            0.81755625404990       -2.91540925327896        2.27427085383403
C            1.05559307014257       -1.58555517085532        2.04033699079002
C            3.61697425109916        2.14140841118559        1.05675966375253
O            3.66429566609114        3.30041181675090        1.40804754802034
C            4.62357247409540        1.62130739229066        0.11777987622251
C            5.33947542531863        2.53564233952451       -0.65158103793758
C            6.28876677170463        2.11670975294067       -1.54659941558592
C            6.57196804042905        0.75660363665274       -1.69755003477025
N            7.55650953396982        0.30983929941237       -2.64988697404656
C            8.78168442256954       -0.27445519329056       -2.21936982633371
C            9.06821485649355       -0.43400777292137       -0.87353589752653
C           10.26613738192708       -0.98324002079707       -0.46103957917480
C           11.19865078334939       -1.37828004987311       -1.39462423253069
C           10.93589986393223       -1.22110878030015       -2.73977408045814
C            9.73766052482608       -0.66969281173969       -3.17513327934294
O            9.52416029847123       -0.51928242261479       -4.54302877716559
C            8.31287102497703        0.02576658838390       -4.96115009380568
C            8.06759231278434        0.15355208694253       -6.32234775462297
C            6.87352066311506        0.66771631075928       -6.78408637287205
C            5.90243887604125        1.06143124360547       -5.89001719294956
C            6.12860446764639        0.94670450643724       -4.53269978671308
C            7.32447263445853        0.44200275775021       -4.04854875237514
C            5.86687707482408       -0.16108793902951       -0.91463655063338
C            4.91301768886587        0.26247544609238       -0.02744676918089
H            0.50479079569079        1.58115719759777        2.42634991456906
H            0.95151058840720        2.62831654049535        1.07482302666454
H            1.62199175559520        2.93449869915923        2.67466595006575
H            2.30138159431564        0.09107274229873        3.48472041395784
H            3.50694190611558        1.36251880488056        3.55852013550297
H            3.85339440701320       -0.11770657318014        2.67532150054608
H            2.63203865479227       -1.83448746966019       -0.91735943376880
H            2.18665285472016       -4.20059016766877       -0.51766084087781
H            1.19525713708266       -4.80223458964040        4.28183836691776
H           -0.46669272941405       -5.40492335572932        5.99642276177034
H           -2.47179092978764       -6.67565003233268        5.36762675905366
H           -2.78888042767683       -7.39322896006821        3.02727265438640
H           -0.76270759935580       -8.50385083283945       -1.06292042242884
H            1.33994105479609       -8.76752891694252       -2.32852815109303
H            3.33363670352121       -7.49597123030256       -1.66588233018486
H            3.21722851485080       -5.92366238529979        0.22492066685535
H            0.23740163186548       -3.19861092279019        3.13213745857273
H            0.64851330077204       -0.84415631812537        2.70459313750215
H            5.12135959917573        3.58300691883922       -0.52893930142696
H            6.83489876320150        2.82797843077872       -2.14102406166061
H            8.34499763339835       -0.11475764264854       -0.14484662938631
H           10.47189418687145       -1.09921457132996        0.59021517420024
H           12.13485147982790       -1.80558905005557       -1.07519568953966
H           11.65760707560344       -1.51938489505899       -3.47910240951477
H            8.83117639545611       -0.16464229334855       -7.00947710283923
H            6.69944692116502        0.75654527311857       -7.84375942907195
H            4.96616456003675        1.45629712930433       -6.24839926351341
H            5.36608461194553        1.24221682622227       -3.83436298805031
H            6.07455918022426       -1.20974545329835       -1.03659752735695
H            4.36942819945235       -0.46004873561910        0.55294325410170
