80
 energy: -13.182352871711 gnorm: 0.000470431685 xtb: 6.6.1 (8d0f1dd)
C            0.80782660445720       -0.32270639909561        0.06977683171232
C            2.33862865401247       -0.19219736193514       -0.06908393375721
C            2.78759757768657       -1.02502043697820       -1.27879553799964
C            2.66381297077713        1.28869248532872       -0.34174354258466
C            3.01436086154275       -0.66269808681033        1.27793392558243
C            4.46795491632013       -0.15143316291288        1.52944492721204
C            5.55921606272755       -1.00470687374774        0.85850466796282
C            5.39271423291016       -2.45404117291133        1.20726559209302
C            6.37312767727682       -3.17839814451515        1.74372576337706
S            7.97355733379258       -2.53829304013252        2.10293337363286
C            8.83834374716172       -4.04971946469664        2.28551175973160
C           10.12784376695423       -4.07149612714615        2.62762361092185
C           10.94434821279829       -5.26539524234899        2.80671117953347
C           12.30502574377719       -5.13033265680069        3.08905901502608
C           13.10581694374247       -6.23342834676114        3.26332864630860
C           12.58394346111849       -7.52462666267416        3.16717925467602
C           13.46634608995870       -8.67038327269482        3.34482750773149
C           13.08678880318036       -9.94905681774415        3.34005526092422
S           14.23775485271004      -11.25830754252033        3.50144309340837
C           13.20054389874498      -12.56324442465030        2.92170685966337
C           12.72697203195676      -12.65669722222630        1.68016813049334
C           11.78886469235868      -13.75846285178673        1.28335210526027
C           10.47661440240253      -13.17626297885094        0.72585668423938
C           10.67251704837403      -12.11315989341238       -0.40229271403293
C           10.83005209370528      -12.67986152359253       -1.86690190292861
C           12.24934382640391      -13.19163858162294       -2.15258350115563
C            9.83343139341558      -13.83030692458648       -2.10581294079260
C           10.50502239087859      -11.55664122233592       -2.87325267157835
C           11.74690171605610      -11.05380825797327        0.00064760996376
C           13.03502505052922      -11.65071926960293        0.61065165577119
C           11.22253661646145       -7.66084917509038        2.88630302925492
C           10.42118073457140       -6.55673071948596        2.70982119669906
C            4.03747250734222       -3.04558848237487        0.94238798752943
C            2.90346887854399       -2.19459942724477        1.55828473244087
H            0.30596053227284        0.03538364828328       -0.82917194216960
H            0.43893555104067        0.26412641634596        0.91089286058104
H            0.50452932111904       -1.35733541423406        0.22245570278272
H            2.34684681987477       -0.63416708654140       -2.19621103229114
H            2.46593766226070       -2.06108492543146       -1.18564608564992
H            3.86768275472266       -1.00503141889308       -1.40384774216425
H            2.08246312790547        1.66332439408684       -1.18443471859057
H            3.71549254234745        1.42550154699430       -0.59130761575458
H            2.42992951681083        1.90802693942690        0.52422141735912
H            2.40094790692219       -0.16865668660429        2.05360943452548
H            4.65646284556553       -0.14414758996245        2.61097238859161
H            4.56503366867989        0.89707808831892        1.22608204949523
H            6.55606062391825       -0.66427605602307        1.16581639679450
H            5.53863370460494       -0.88272133456007       -0.22904818233430
H            6.19947768828878       -4.20874223426207        1.98692221601105
H            8.29798670741851       -4.95712455701764        2.10604888237634
H           10.61584957195850       -3.12394300477898        2.78296752843909
H           12.72615314121405       -4.14239736628551        3.16759485247861
H           14.15350428699016       -6.10826425734524        3.47833083105515
H           14.51471977794307       -8.46196624148574        3.47582428510197
H           12.05762287339316      -10.22307724460446        3.22114082164192
H           12.94457602541218      -13.31131726543417        3.64795750517755
H           11.58916341391217      -14.40435622250581        2.14819431892271
H           12.27359971889529      -14.40675726584845        0.54636455818147
H            9.93015357948836      -12.71053589977139        1.55638215845511
H            9.81973171067850      -13.98356798291837        0.38346082700253
H            9.71285090250944      -11.56627989342295       -0.44642670078079
H           12.54881624965744      -13.96286637007089       -1.44655767236619
H           12.97581734492921      -12.38146202800714       -2.11459276390530
H           12.30521243189992      -13.62526940738915       -3.15133532924663
H           10.09833615142719      -14.71358343023893       -1.52572176094907
H            9.82831649382505      -14.12575966714977       -3.15508211362249
H            8.81913829416452      -13.53256764359669       -1.84004649374432
H           11.20559926509366      -10.72705371196442       -2.79137920262616
H            9.50006506846183      -11.16607729061271       -2.71347443256944
H           10.55706042375502      -11.92750248190995       -3.89691411492419
H           11.30847984713897      -10.35568450202636        0.72445831968610
H           12.00242483935206      -10.43579868408825       -0.86745564114068
H           13.66870459500605      -10.85557539081326        1.02196392421956
H           13.64976331301529      -12.12897260607167       -0.15852665184329
H           10.79358347035079       -8.64346381547019        2.80138228716845
H            9.37544438177960       -6.69069751831953        2.49699491617655
H            4.00294142532455       -4.06782750289097        1.34080852850158
H            3.90392610917005       -3.15818253960219       -0.13829606268119
H            2.89405479384174       -2.35999443392357        2.64302825521466
H            1.93330373091268       -2.56438277943810        1.20707333698445
