44
 energy: -8.141817330808 gnorm: 0.000458358014 xtb: 6.6.1 (8d0f1dd)
C            2.26389250747914        0.69020333958884        0.71217194523954
C            2.89150611782985        0.96311840441910       -0.66072909519422
C            2.32875348218303        2.28183221235171       -1.21333661022836
C            4.41239095522047        1.08284200219910       -0.50679320566850
C            2.55483734136393       -0.19626924590287       -1.64468495959269
N            2.99530516555507        0.13618813822060       -3.00853666499141
C            4.26877481702344       -0.17335763676433       -3.44790220915122
C            4.86014359871036        0.50160973904063       -4.51899204069511
Br           3.89412035434017        1.86892447036149       -5.37895556058921
C            6.13764797769842        0.18708312321489       -4.91849515229958
C            6.85192179448314       -0.80457214856027       -4.26263676270641
Br           8.60421179252237       -1.22958211158625       -4.81599029476085
C            6.28587292964710       -1.48133877148486       -3.20854701213882
C            4.99959196794049       -1.17562251051938       -2.78201171144532
C            4.36521680757628       -1.93357281759923       -1.69966875615546
O            4.90185629422517       -2.94264052839043       -1.26447318674185
N            3.13329783191262       -1.49636765239978       -1.20649571743843
C            2.29065862848423       -2.46328366886522       -0.48722503117709
C            2.55289552951258       -2.52437003318315        0.98303029842126
C            3.83942080909101       -2.72479077873471        1.45211489988976
C            4.10151902565989       -2.77276980656868        2.80438135943356
C            3.07113116841133       -2.62589305129275        3.70869218059770
C            1.78193835163804       -2.43576062716537        3.25672337794475
C            1.52366513418241       -2.38764098044529        1.90227773778932
H            2.40587782893902        1.53873925434542        1.38055371154769
H            2.72673186943486       -0.17421559119819        1.18185618434298
H            1.19369287572661        0.50470241441520        0.62652725281477
H            2.49819289992701        3.09925032461135       -0.51324952246599
H            1.25604867456665        2.20586580623861       -1.38835282968329
H            2.80835358878625        2.54992426324383       -2.15362695829429
H            4.67333472887845        1.87513279481355        0.19382541842218
H            4.88369855191973        1.31116658984591       -1.46147398455877
H            4.83780505261132        0.15104159731341       -0.13624717297028
H            1.46501206733581       -0.31749536293783       -1.67000073380901
H            2.45567119265714        0.86330118018982       -3.47526464159440
H            6.58733304315016        0.71446472418223       -5.74360197314396
H            6.83187265802793       -2.26668479650234       -2.71419849241245
H            2.47864065350950       -3.44726618768440       -0.92706922002749
H            1.23939127105224       -2.23522256863571       -0.67930913349359
H            4.63106665709345       -2.84911023492888        0.73465541083132
H            5.10930700259506       -2.92812215860412        3.15281446828675
H            3.27209214864449       -2.66488573600691        4.76682475037478
H            0.97483681250092       -2.32637061888640        3.96231878191094
H            0.51744003995725       -2.23997475374562        1.54939085557051
