24
 energy: -4.838081192145 gnorm: 0.000983702348 xtb: 6.6.1 (8d0f1dd)
Br           0.96669871393807       -0.13878952033850       -0.17935660145939
C            2.81134126702975       -0.17653566717418       -0.56950041129842
C            3.70821038594233       -0.52980363596321        0.38693382532622
N            5.05513855118335       -0.55986900395401        0.11084239033898
C            5.97178924349391       -0.98702188487364        1.16121336863439
N            7.37539119820810       -0.89079590049734        0.78027628140573
C            8.33368468967450       -1.18840030511650        1.72067559504578
C            9.65362602622834       -1.14518466968525        1.40386037861668
Br          10.95799835571439       -1.55361197940450        2.70325248307944
C           10.03872236560646       -0.79777740999962        0.10813844675806
C            9.09371905072234       -0.50123341192846       -0.83162833716882
Br           9.62110004562869       -0.03348552114856       -2.57291819201523
C            7.72339576742107       -0.53682804663131       -0.51930862974437
N            6.83941057127585       -0.22857396202982       -1.47592832090512
C            5.54175673405619       -0.22895956052874       -1.14948417203801
C            4.59969248536903        0.13143875038923       -2.12859932598307
Br           5.20026639236922        0.58477991853008       -3.84951406020056
C            3.26416200228432        0.15798707187458       -1.84687024411327
H            3.36947847498491       -0.79703790857204        1.37267210764811
H            5.74774906588420       -2.02402129515204        1.42281884996785
H            5.80180072718164       -0.37356337940640        2.04930003798093
H            8.02546374410462       -1.46086698763860        2.71491209005047
H           11.08506906827144       -0.76437862530019       -0.14884621348192
H            2.55650507342725        0.43841293454903       -2.61017134644447
