44
 energy: -8.801859787786 gnorm: 0.000876030642 xtb: 6.6.1 (8d0f1dd)
C            1.07272030625935        0.02147834361712       -0.66752192430641
C            2.48197380623579       -0.14627137464613       -0.09596832516427
C            3.21464428108996        1.19571969759446       -0.09637978411815
C            2.40551327609864       -0.70571390253090        1.32619426642645
N            3.26669092855341       -1.10321837952757       -0.93223165366730
C            4.56560673043206       -1.45372326062735       -0.59419372461339
O            5.19757140220153       -1.09023150304744        0.38170702463666
C            5.03563151857979       -2.35158474451699       -1.66208224270250
C            4.04088412758865       -2.51191427240437       -2.62649533012053
C            4.23599982315665       -3.30242764449203       -3.73468329467401
C            5.45527274124191       -3.97165865286265       -3.90020738850524
C            5.70954417637125       -4.81001410212853       -5.02830137181566
C            6.89072436822798       -5.45077491104194       -5.17610132176018
C            7.93599042927425       -5.31567254698002       -4.20962098308466
C            9.16353683831814       -5.96604994731304       -4.34112843214235
C           10.14936454049536       -5.81205402052432       -3.38868227931857
C            9.94484063770036       -5.01191947908631       -2.28411507883158
C            8.73548216302950       -4.33926390375480       -2.10351354012440
C            8.48968865499277       -3.50037545028703       -0.97077136733849
C            7.30924143240397       -2.86044190997229       -0.82102415736899
C            6.27109270619871       -2.99896577130504       -1.78455651959827
C            6.47451816933894       -3.81858149581276       -2.92132287890213
C            7.71897680462532       -4.49319489453733       -3.07841218073721
C            2.84440985396185       -1.67956842951109       -2.23191586061326
O            2.51950401860533       -0.68627124520321       -3.18797107577073
H            0.49514721361969        0.73720259955645       -0.08376198823210
H            0.53919508231130       -0.92762333437339       -0.66422457262788
H            1.11732186605764        0.37645305942094       -1.69611083643322
H            2.70250536552867        1.92628082627042        0.52859660207727
H            3.28269829644832        1.59428511156336       -1.10743112123078
H            4.22855296225060        1.06887445865541        0.28161028124458
H            1.85894593745128       -0.03422668032127        1.98733711986593
H            3.40814408018607       -0.84615790239789        1.72840706210061
H            1.90703102945046       -1.67396338654456        1.32907373667050
H            3.45703288947327       -3.39914974787401       -4.46835438676957
H            4.93509627747536       -4.92496237032951       -5.76660111844484
H            7.06195295104057       -6.07798513032664       -6.03368914380559
H            9.33340419730421       -6.59290939620021       -5.19940092602774
H           11.09057760613968       -6.32296179344039       -3.50878373655814
H           10.72106118945418       -4.89829772481198       -1.54720197333516
H            9.26611955935278       -3.38651292616862       -0.23460042517262
H            7.12377625455495       -2.22783347843598        0.02971812853771
H            1.96289370466207       -2.31640786248541       -2.08395207863685
H            3.30533980225918       -0.11165052085507       -3.30797119900659
