54
 energy: -10.062598454325 gnorm: 0.000245585420 xtb: 6.6.1 (8d0f1dd)
C            1.10724075381407       -0.03809073976262        0.86178707377081
C            2.61180171918187       -0.03094513696997        0.57128053977134
C            2.88759093552277        0.78616758578138       -0.69421336350734
C            3.37086605916306        0.57611234755627        1.75397758973633
N            3.07569399590731       -1.42694029421829        0.38246366551049
C            4.40691248338376       -1.71414740989262        0.11972801019073
O            5.19823943244912       -0.85767517136543       -0.24773626081302
C            4.86583196383958       -3.10612033096230        0.36945525152863
C            4.28839277618928       -4.20123129572265       -0.27728676706215
Si           3.12357629719133       -4.07892365294683       -1.72736724299309
C            3.62803620321511       -5.32587110893017       -3.03072144241092
C            1.38534344443738       -4.47004303278175       -1.15551348060454
C            3.15269309412645       -2.38897498460340       -2.53491779285876
C            4.65003582417034       -5.48532110528560        0.05729151196984
C            5.62192666652828       -5.74267891311480        1.02861018065014
C            6.00907972839839       -7.06950504638038        1.39064993318421
C            6.95809622549893       -7.29127318825295        2.32801551328582
C            7.61056898413785       -6.20565168466286        2.99229672249897
C            8.59239627940218       -6.40591993733400        3.96404467305215
C            9.20012122569162       -5.33397313130582        4.58473552983116
C            8.85127529540780       -4.03949355901443        4.25948780061367
C            7.87498817094887       -3.78457486585165        3.29477217361998
C            7.48895847533059       -2.45858202998274        2.92624443497352
C            6.53908734796353       -2.24377680446391        1.98904005872126
C            5.87838264980481       -3.32317777829105        1.32900783460898
C            6.24824965074506       -4.64693730804592        1.66423061048032
C            7.24797399266782       -4.87950595533058        2.65289013532940
H            0.72864431553247        0.97587361459804        0.98776959704221
H            0.89077331093928       -0.59540770472426        1.77240609060358
H            0.56105231637858       -0.50577174179976        0.04340476056280
H            2.62865810049501        1.83446649024700       -0.54853971917005
H            2.30880757692005        0.41090528846405       -1.53609504508173
H            3.94288279122832        0.72777458782818       -0.95720124581706
H            3.05076738456719        1.59985118424042        1.94538191475189
H            4.44045979920320        0.58473950077620        1.54844313550170
H            3.20767118474676       -0.00999319567440        2.65740431736895
H            2.51350856414427       -2.11119205807896        0.88902896431074
H            3.48634393918400       -6.34098360468206       -2.67153574444104
H            4.67488407093990       -5.18641344298893       -3.28537867009517
H            3.02866822346501       -5.18814554024370       -3.92627824963576
H            1.35044909980957       -5.46880006844315       -0.72947865520466
H            0.69615606799561       -4.42122064691288       -1.99385326466613
H            1.07061869210767       -3.75598677866760       -0.39999571727379
H            4.15532319351332       -1.97173303254691       -2.50717661360788
H            2.48207855950190       -1.72926767670350       -1.99492507507961
H            2.82316005215603       -2.45273354374614       -3.56803963867286
H            4.17744209038139       -6.31449339313905       -0.43941279432269
H            5.52798002091493       -7.89732664436655        0.89893320731315
H            7.23829954108006       -8.29704705970862        2.58906247512540
H            8.87183210217870       -7.41213914763260        4.22486274381717
H            9.95664780407652       -5.51001069370212        5.33202495372813
H            9.33197323376063       -3.20984707491011        4.74854946694788
H            7.97690900289853       -1.62751865035917        3.40518212101643
H            6.27990928677073       -1.24136443497514        1.69819379190259
