58
 energy: -11.016914593729 gnorm: 0.000871273742 xtb: 6.6.1 (8d0f1dd)
C            1.05151268988625       -0.34673910569376        0.12331014277079
C            2.56472576839236       -0.46163188662226       -0.08032815070821
C            3.27685935671294       -0.43607466727500        1.27359432787729
C            2.89108331888284       -1.76240152070719       -0.81931993777897
N            3.04521200387811        0.67537690585621       -0.90167190469447
C            4.36604556273949        0.76141960306073       -1.29999835679230
O            5.23145009023050        0.07197089216293       -0.78163087789117
C            4.73067883302994        1.65147611102902       -2.43146300265647
C            5.79240897111255        1.22347930023956       -3.20684535156279
C            6.21985496638057        1.91774896178392       -4.33341171667841
C            7.31519953088594        1.46828189324613       -5.13204174566086
C            7.70991056070731        2.15414443947922       -6.22730909278581
C            7.04549758086156        3.35575715563118       -6.62450935476404
C            7.43375846563544        4.08383146130166       -7.74993817080384
C            6.77282145001040        5.24157916103629       -8.10479205930223
C            5.71384611750151        5.70612507749915       -7.35362818619285
C            5.28686163954920        5.01471782179342       -6.21850359283712
C            4.19505435507521        5.46159592994569       -5.41562161989516
C            3.80348983762948        4.76856741861372       -4.32392370771514
C            4.45081758297451        3.56367527286798       -3.91371354527345
C            4.05514718857803        2.84575425445209       -2.76092128048673
C            2.97992871847281        3.40189482920775       -1.90216678835902
O            2.02984565868463        3.99541060842896       -2.39114362445918
N            3.10648486894838        3.27842986695266       -0.52979963880310
C            2.29257372270643        4.08731448252662        0.40711892823306
C            2.56152350774385        5.56796119881326        0.12629174466685
C            0.81112556941351        3.77530317775039        0.18755343431903
C            2.68877678317784        3.74974712249798        1.84775045135718
C            5.53669956374434        3.09931630117219       -4.69601940872602
C            5.95652533442620        3.82437967740698       -5.84883939994632
H            0.66816471680371       -1.19610839953706        0.68768402332853
H            0.53341818403157       -0.31463112230392       -0.83426041377390
H            0.80536206401659        0.55956763629977        0.67248944423564
H            2.97741111167524       -1.27971007411959        1.89429556301209
H            3.04952384820643        0.48256979993894        1.81026324507547
H            4.35554559191584       -0.47903209642895        1.12913979860876
H            2.56294708096906       -2.63324866969854       -0.25320457055946
H            3.96547910413829       -1.84191606561760       -0.98038863912458
H            2.40530026599819       -1.78157514905885       -1.79375024452203
H            2.31889399857806        1.18723483085610       -1.41100460279864
H            6.29951450266435        0.31947849989175       -2.92049879839623
H            7.82521756079745        0.56542136931184       -4.84396858557579
H            8.53689197178445        1.80265012305814       -6.81949824733870
H            8.25973730495346        3.72947283998142       -8.34211848691462
H            7.08775372462250        5.78886989060450       -8.97810155266046
H            5.20396044467031        6.61040017211560       -7.63785047844182
H            3.68052629590246        6.36291252550490       -5.70050921007215
H            2.96316155602272        5.10969525332925       -3.74799996489471
H            3.91649367377589        2.80447624230011       -0.12204669620841
H            2.29557929529679        5.80970514300250       -0.90193331063757
H            3.61741313204241        5.79774509959090        0.26065811087901
H            1.98188026659094        6.20788004911731        0.79050477372920
H            0.53417473609270        3.97825201459871       -0.84588771013595
H            0.17940735920163        4.37809077162963        0.83884063372582
H            0.60497334734379        2.72626159155953        0.38580020272551
H            3.74705649721543        3.94639652797468        2.01407697242981
H            2.50414631207366        2.69858098341703        2.06039930401780
H            2.11658645464410        4.34432846824075        2.55899092583472
