58
 energy: -5.847076846455 gnorm: 0.005641822861 xtb: 6.6.1 (8d0f1dd)
C            0.75558429206818       -0.53599831222425       -0.05350178427607
C            2.15830851436661       -0.65819094880901       -0.39148519534823
C            2.42734880837955       -1.96523842627315       -0.94738800218255
C            2.50863150463315        0.36177858235137       -1.36267985833292
N            2.97177237914838       -0.45240200357481        0.80612177528627
C            2.83167547345671       -1.23922721102644        1.89367867327977
O            2.05352088276383       -2.17854507694031        1.95171818107843
C            3.65706555076722       -0.91727668703977        3.02723785126011
C            3.45500916941993       -1.30783606095110        4.26555388033370
C            4.21173285681952       -0.98516839699491        5.30572124469535
C            4.00360587106184       -1.32937668374840        6.59948093405731
C            4.70155846133297       -0.99931968362984        7.64155493350873
C            5.78370234386612       -0.18024510040800        7.76866246539670
C            6.21729471421586        0.81552252013764        7.00055342625377
C            5.58153477771060        1.41663762549969        6.01273744642043
C            6.05794588034112        2.33303638048340        5.19114338238475
C            7.28520655080109        2.83615568447483        5.16968499268717
C            7.78334993360356        3.70313143394208        4.25300398711971
C            7.13983811177182        4.22379701498219        3.25741215385771
C            7.64169113162395        5.01842621680509        2.28330996683084
C            8.89628176823155        5.43201037574279        2.14838525366135
C            9.47583920763889        6.13385353877324        1.05957117800808
C           10.45690501769033        6.86270310866788        1.31828893392246
C            8.99109144275810        6.01417929732420       -0.17857461009903
C            7.90808103063546        5.19248438998317       -0.48469365997487
C            6.72457848044203        5.86694689879691       -0.76509535587736
C            8.26232885897878        4.10783254873217       -1.39591586971414
C            5.60819625383198       -1.18916433178761       -5.87181578055809
C            5.53425470533048        1.25526098868563       -3.07626412331535
C            6.67880342658148        1.73698689708933       -3.33814709964582
C            8.27833567161900        2.11635403047093        1.37485636229412
C            6.23479080175346        2.68160118529759        0.70615962302353
C            6.56402392382493        0.21319421123637        3.09984368537141
H           -1.48641553263234       -0.23721415782270       -2.52037422657382
H            1.06298281136864        0.24165895014271        3.57748337333037
H            0.18521986446959       -1.84155564696852        2.96362389641103
H            0.92894482310633       -1.25204442275879       -3.96774614987339
H            0.68646028341870       -3.40999887783425        0.87164506795625
H            3.30011566174986       -3.75655479723493        1.09060598938221
H            2.25991762838950        1.21973463469235       -4.39757629145800
H            4.24750912295529        3.41224375798299       -1.65855683814403
H            0.69186117398413        2.26681165307442        0.05986130553328
H            3.59065774455002        1.65875565875506        1.73605933247980
H            2.17370759729827       -3.74149152003918        3.43862933865790
H            1.00129661628305       -1.60138136908498        5.85549644922647
H            2.54892861124072       -2.47274457603900        9.21964606378112
H            4.18567684466907       -0.09635301492941       10.46707477342890
H            3.16251882248628        1.75461075956071        7.60520580829136
H            7.18044934194086        3.35103933792803        8.11285948039041
H           11.39204630089558        7.09600429672976        2.78325801671406
H           11.93254916509308        6.23330043458352        0.59953261478524
H            9.84762911899581        8.53134104398042        1.56642959310833
H           10.02602308527380        7.29811023817655       -0.61661646449707
H            8.44228992899331        4.47449460933912       -2.38644480962818
H            9.13531977879656        3.58967087675676       -1.05373794245729
H            5.62121599077572       -0.24859034266975       -6.27791288585069
H            4.15641225978360       -1.22898454573722       -3.35951762959865
H            5.11901515821005       -0.38827698704163       -0.10412685634490
