65
 energy: -13.520963207844 gnorm: 0.000532245421 xtb: 6.6.1 (8d0f1dd)
C            1.21079592197908        0.31043985746551       -0.62893044547235
C            2.72393848102179        0.08892736872134       -0.71903138917093
C            3.16067109138405        0.03268730425529       -2.18521834640306
C            3.45927633981041        1.22196968562977        0.00211934483732
N            3.07132689955127       -1.19920269684575       -0.07681075681772
C            4.37482956455050       -1.65873544071837       -0.03642275045481
O            5.31063893081046       -0.96040447698901       -0.39705316645542
C            4.61367067282370       -3.04824906733971        0.43261391776100
C            3.87056499162520       -4.06167952751066       -0.13427712034511
C            4.21437142755155       -5.39219833586381        0.03551697273865
C            5.36556335077045       -5.75446676796267        0.70486892229263
C            5.74434650981533       -7.16945240012018        0.79467775588806
C            4.88077604070900       -8.23526449987070        0.60762506178325
C            5.63066990297994       -9.40888889782055        0.77350840858107
C            5.29575428804650      -10.77407640296420        0.69614731589885
C            6.27675768419445      -11.70079008442819        0.90653821864085
C            7.59474326614488      -11.30579264696503        1.19405237223191
C            7.93888838191176       -9.98530508899967        1.27317201495882
C            6.95381466542794       -9.00790499469921        1.06189299011518
O            7.01555435575031       -7.63364694151361        1.07648321984962
C            6.17176065942487       -4.72759129620403        1.28261654966263
C            7.44284947636993       -5.00601782469952        1.83285366725328
C            8.23564531939668       -4.02431629074743        2.32832733792107
C            7.77462625393122       -2.69094040224779        2.43929530672883
C            8.63157917991763       -1.62791829835047        2.95000780083080
C           10.01400348926265       -1.80985560358225        3.10415143595132
C           10.82353802468252       -0.79135234358358        3.53217743315659
C           10.28256278216168        0.45190959843888        3.81396914811340
C            8.93638465999544        0.66209285922413        3.67047594164450
C            8.07936931461912       -0.36251379876422        3.24345249327501
C            6.63700409364378       -0.17069512417290        3.15013480292912
C            6.00811093417466        0.96738440487734        3.67707745712278
C            4.64274898620543        1.07727966285668        3.71349733092719
C            3.85320782862890        0.04238637784743        3.24158968939625
C            4.43977272216628       -1.06989279116623        2.70246883688648
C            5.83342389022253       -1.19067342083095        2.59608502884640
C            6.45242374789712       -2.40162146074914        2.06028614811526
C            5.72240492240078       -3.37931885559431        1.27479322561769
H            0.92669057868734        1.25703866892551       -1.08732070494813
H            0.88607469442085        0.32568582720954        0.41062026228285
H            0.67245307943841       -0.48765424430519       -1.13830997433093
H            2.93399512051065        0.96434652703494       -2.70217814778603
H            2.65711271646403       -0.78147547405141       -2.70431953253790
H            4.23380776086464       -0.14481361702408       -2.24791956088097
H            3.28198788516753        2.18074558682348       -0.48352249200769
H            4.53154666344182        1.02946988687614        0.00652222684307
H            3.12952375229349        1.29709533297903        1.03638778885831
H            2.28758893203664       -1.81563517584097        0.14210609476063
H            3.04298074616213       -3.80294314776941       -0.77230357555011
H            3.61292757292568       -6.15495638859315       -0.42672403860891
H            3.82905114056245       -8.18663379130868        0.39134373846984
H            4.28404691496040      -11.06490835444045        0.47477516744754
H            6.03953560919350      -12.75041876184959        0.85111825378733
H            8.34710433799187      -12.06058342315496        1.35382671590218
H            8.94532108484348       -9.67678779647347        1.49123298403844
H            7.80312931971626       -6.01707485112152        1.79942559030769
H            9.21103897423983       -4.27955407925627        2.70084478957483
H           10.45746541201727       -2.75655357826122        2.85461312376505
H           11.88390418239218       -0.95201799458978        3.64002749231935
H           10.92270488107190        1.25420681544204        4.14303829969337
H            8.53873585728116        1.63861114567328        3.87823893980843
H            6.60186075986876        1.75993764362388        4.09426941506920
H            4.18150567255556        1.95721599364812        4.13144149593554
H            2.77927797645777        0.11219116097802        3.30178238126188
H            3.82025932244743       -1.88242524918528        2.36759109169640
