83
 energy: -17.433659458007 gnorm: 0.000583428060 xtb: 6.6.1 (8d0f1dd)
C            1.08300217180603        0.42746131924348        0.06657221634617
C            2.60819462143649        0.52127076761853       -0.04123005033547
C            3.03669837673425        1.98264588445266       -0.19803360229645
C            3.25552782597479       -0.08029646651579        1.21023560853523
N            3.06412289039874       -0.22986744570871       -1.23318255382633
C            4.40357470137028       -0.30526004314807       -1.56987165287613
O            5.27004900778788        0.13862194214405       -0.82944031653147
C            4.77430786141953       -0.92050531201926       -2.86837176938833
C            4.11951857494297       -0.49249690239101       -4.01015815979895
C            4.59560879580653       -0.79433208051797       -5.27055253565014
C            5.79198273293876       -1.47359004400014       -5.44708349908491
C            6.29951301384403       -1.72313202650654       -6.81090301756627
C            6.28036569485340       -0.71289351784610       -7.77919697482487
C            6.76683771012582       -0.93525433619507       -9.04102464980473
C            7.29211992596426       -2.17998059945081       -9.39734213754590
N            7.83363507007297       -2.40490066464679      -10.71291542899909
C            7.27060540119077       -3.38229402097330      -11.57599247683681
C            6.15205712442931       -4.11599167205337      -11.20707375193874
C            5.60822486338872       -5.05977108964737      -12.05236990930481
C            6.17308783189378       -5.28324946442064      -13.29055981829866
C            7.27447563682889       -4.55648853751572      -13.68446690475254
C            7.83673926924583       -3.59701261972319      -12.84849287267690
O            8.93331456820367       -2.87621769261469      -13.30261928110264
C            9.48026360433096       -1.92109906871906      -12.45602516230401
C           10.58673915125480       -1.19778718952422      -12.89000392382745
C           11.18063773982152       -0.25538741529192      -12.08034737708385
C           10.68110413367927       -0.02125184433080      -10.81634198035481
C            9.58324987310027       -0.72469005030590      -10.36824430036017
C            8.95948191605282       -1.66931371747108      -11.17098760393671
C            7.29272856118355       -3.19765277615993       -8.44019624359042
C            6.80433143771153       -2.97563124956189       -7.17940929019426
C            6.51258850074682       -1.89750686022134       -4.28510995756692
C            7.83954112298097       -2.37677044982937       -4.37162396309734
C            8.54496427821157       -2.71704815487439       -3.26146376016460
C            7.94889632073821       -2.72505526040600       -1.98055845562490
C            8.70537874313152       -3.07403054951614       -0.78670646747366
C           10.10279881526267       -3.18994695123773       -0.80824136270128
C           10.81260848320799       -3.46810901634216        0.32835676668295
C           10.15972943423643       -3.63722707702153        1.54106798135526
F           10.86503434882677       -3.91543752140198        2.66673784547935
C            8.79189597151283       -3.52553227025987        1.58826430108036
C            8.03503690698426       -3.24774263536917        0.44419491046630
C            6.58092614704954       -3.19034440916317        0.48474201634366
C            5.85778560023980       -3.58063350796547        1.61876800309081
C            4.48611796121976       -3.65848463645214        1.61165010999167
F            3.81004924113503       -4.00305592345316        2.73678382447298
C            3.79666457067056       -3.37167385286864        0.44190115972241
C            4.47304678510245       -2.96033240107260       -0.67213092404971
C            5.86737379671081       -2.80781425270773       -0.67191364206697
C            6.58527962726251       -2.39050597352495       -1.87021293336256
C            5.92969700565727       -1.75618014057239       -2.99613850978240
H            0.71923926091438        0.96993499561665        0.93831147889109
H            0.76786442195352       -0.61102798021523        0.15711960534513
H            0.60666624244461        0.84847195960375       -0.81761158132070
H            2.73653765955356        2.57772763338335        0.66341711216828
H            2.59252475099381        2.41936057357156       -1.09106421919174
H            4.11975310697907        2.04372411243984       -0.29927639833850
H            2.99601872584658        0.48871804527398        2.10177133534483
H            4.34004503572782       -0.08512615394209        1.10683274642331
H            2.92964124322803       -1.10795793470990        1.35625205732057
H            2.33645328801096       -0.52732493866282       -1.88444180967459
H            3.25319555277056        0.13751582281571       -3.90487780500245
H            4.05160245722286       -0.46636806731616       -6.13923378576909
H            5.89489663161575        0.25598944168024       -7.51331560068331
H            6.74721830941940       -0.15320287061569       -9.77980604556542
H            5.70105345858784       -3.93394586701775      -10.24844517067735
H            4.74185305501652       -5.62245439084234      -11.74611098936098
H            5.75079872262656       -6.02201239490276      -13.95158235877604
H            7.71986959271089       -4.71281340662617      -14.65074687822093
H           10.97148825641137       -1.39860653194044      -13.87394495407328
H           12.03859673414719        0.29339243471106      -12.43224773784812
H           11.14959091500051        0.71043661203385      -10.17902733655995
H            9.20544353088972       -0.54944119135429       -9.37734533193825
H            7.69839841396782       -4.15755150051040       -8.70811546128033
H            6.79282267929254       -3.77404166856783       -6.45770667830466
H            8.31992385055214       -2.40157752643337       -5.33333362763874
H            9.56404204028962       -3.03983169618102       -3.37219184049441
H           10.63738849445047       -3.03064405239049       -1.72668408092418
H           11.88503472571918       -3.54965548508678        0.30738899179822
H            8.31995321442127       -3.64853739327404        2.54360448136355
H            6.36220015128753       -3.86188208681399        2.52256731361531
H            2.72642270498910       -3.47861357253268        0.43342861366118
H            3.92726902425002       -2.76234514313355       -1.57724156687140
