62
 energy: -12.729423329482 gnorm: 0.000408818426 xtb: 6.6.1 (8d0f1dd)
C            3.15483056808391       -0.89383275175026        2.03655734400799
C            2.75928847177031       -0.35977056750891        0.65770574805798
C            3.51791972396315       -1.11981554809199       -0.43352721461886
C            1.24991418099156       -0.51526872203981        0.44624276151165
N            3.11876339334541        1.07490635466575        0.58879251555910
C            4.42145029507835        1.50443720619801        0.76398768728382
O            5.35397245003750        0.71820011441712        0.83858892359170
C            4.66114037043113        2.96562270118281        0.89400202336349
C            3.93118037075067        3.65641382765451        1.83828794117626
C            4.27058816276540        4.94539565091474        2.21594223573614
C            5.40162039303785        5.55861527519368        1.71787250910852
C            5.77667175222951        6.91158126304533        2.19421560959492
C            5.92694991889803        7.17152148466120        3.55597949526148
C            6.27808727378269        8.42782757569359        3.99827883068832
C            6.48208980079858        9.44926881036335        3.09209269279633
C            6.33142159804599        9.21204575444095        1.74038869841964
C            5.98057351283806        7.95725923539825        1.29416058632764
C            6.19970919957790        4.85710462687443        0.76305958214308
C            7.47261725032725        5.34084100883598        0.37994344316516
C            8.27011611876897        4.63782724394050       -0.46174932780914
C            7.81623027651627        3.45502575156422       -1.09447252664283
C            8.68283048791582        2.68447873328051       -1.97839137768546
C           10.06374128422410        2.92374793344322       -2.04462106977220
C           10.88320996731822        2.15839768274893       -2.83122242295397
C           10.35408298644501        1.11783866422008       -3.57642721444039
C            9.00941871862073        0.85869599974563       -3.53314670674902
C            8.14246058962554        1.62960983077905       -2.74505116483150
C            6.70163899243869        1.40556579284837       -2.74101148788776
C            6.08358021307414        0.56020640048754       -3.67495181494629
C            4.71917836197520        0.46533636931948       -3.75986217746250
C            3.91996141073323        1.22815162734179       -2.92497646323089
C            4.49593036381467        2.04270980992399       -1.98845443831309
C            5.88828445122066        2.12127413551232       -1.83583611343107
C            6.49589340230888        3.02999897363656       -0.86547876023179
C            5.75813745007970        3.61282865359466        0.24011113595002
H            2.91511944353664       -1.95201709013295        2.13467016404239
H            2.63536878060764       -0.34790304615962        2.82283905224263
H            4.22551375137128       -0.76614112914057        2.19287758646522
H            3.33011945075513       -2.19115981419594       -0.37305771151725
H            4.58939656472880       -0.95000524366304       -0.33345093535717
H            3.21621602479856       -0.77622066554921       -1.42088273734183
H            0.95687094522340       -1.56416190742769        0.47736992442283
H            0.95344984688390       -0.10855710517692       -0.51981659038117
H            0.69469157324912        0.01486085520629        1.21903583336322
H            2.33845257264210        1.73207619478976        0.62940640695423
H            3.11485414207104        3.15554060977006        2.33000563363898
H            3.67417246852316        5.46666347880026        2.94486326949579
H            5.77459586957650        6.37106993372268        4.25942819855131
H            6.39591590607536        8.61299457571998        5.05360477720962
H            6.75775068618600       10.43141795336618        3.43994850953187
H            6.48686180308619       10.01031419698555        1.03299687379356
H            5.85302390942293        7.77083604525602        0.24149807517405
H            7.83286908037843        6.25328352918010        0.82118122830757
H            9.24622170219698        5.02175328518390       -0.69642968847369
H           10.49848164614261        3.70384489191667       -1.44670154210789
H           11.94224999619631        2.35706771801316       -2.86268357899894
H           11.00265291782648        0.51099945646274       -4.18709830602367
H            8.62086738169918        0.03724573818947       -4.10699468088924
H            6.68501130915672       -0.00229475512808       -4.36538678600696
H            4.26619211886415       -0.18369177935331       -4.49161894369232
H            2.84679234792818        1.18063177753580       -3.01423859682679
H            3.86901399904931        2.65334539329108       -1.36359491828707
