52
 energy: -9.145892087656 gnorm: 0.000535301895 xtb: 6.6.1 (8d0f1dd)
C            1.29447271649092       -0.98448532189083       -0.20494578902491
C            2.79411496225265       -0.70488187939158       -0.04731910436645
C            3.55415329274148       -2.01734082653555        0.17984507151497
C            3.33312949881438       -0.00091091872810       -1.29727734476333
N            3.01108532473209        0.17175415859180        1.12864397930316
C            4.28133648927374        0.50535753726303        1.54748725286819
O            5.25448542246620        0.21353174105488        0.87027357946643
C            4.45916279868521        1.19534062063861        2.85167503548407
C            3.71320432261049        0.75396884436380        3.92643873238182
C            4.01670610971915        1.14098873038633        5.22867134807314
C            5.11873501124062        1.90359473275178        5.47209415389692
Br           5.55995694427890        2.30881673577328        7.25063442539631
C            5.92304493513672        2.36858793689873        4.41849359139655
C            7.15608741305938        3.01598051873426        4.67076756005040
C            7.98106250065688        3.37263236623088        3.65445340780797
C            7.58984279593728        3.23162623758594        2.30194067999655
C            8.48962992190528        3.56587027361335        1.21065477578921
C            9.85624628382995        3.80165641083493        1.42762587061884
C           10.70820456108991        4.05968125029464        0.38971791874610
C           10.23478499201747        4.08580081132005       -0.91449277701226
F           11.07645628526443        4.32786566632086       -1.93882198451116
C            8.90161732253517        3.85822354014471       -1.15509364870447
C            8.00275813183099        3.59801391637972       -0.11661112816673
C            6.58060875790565        3.41720294453875       -0.36355912448799
C            6.01178917800423        3.65701656399189       -1.61847058973046
C            4.65186382558585        3.61287646685132       -1.81355068563741
F            4.13513464868950        3.77360499460115       -3.04695159730174
C            3.81378656186988        3.36764670577586       -0.73468395199403
C            4.34151484624953        3.09707039537964        0.49475174931143
C            5.72860973691686        3.05618556910227        0.70552118182232
C            6.28703964667725        2.76693529077383        2.01735285776551
C            5.52766259762024        2.12543694895085        3.07291993906717
H            1.10305545044072       -1.62317182143962       -1.06603111774717
H            0.74141020276847       -0.05686239453781       -0.34304690806103
H            0.89891997011769       -1.48273854386852        0.67867705258706
H            3.43293115129530       -2.69804901992465       -0.66152940406839
H            3.19922170714826       -2.51569803967646        1.08035657946878
H            4.61745043996718       -1.81494108195356        0.30962454824337
H            3.23668403240388       -0.63056316276975       -2.18059618565410
H            4.38639465150273        0.24495743678427       -1.16305871458353
H            2.79280770714311        0.92574717101073       -1.47987458222787
H            2.19105316947796        0.37240711498311        1.70132437458089
H            2.92454053172428        0.04137018040858        3.75950045126523
H            3.42394979847107        0.78904685363326        6.05865323226214
H            7.45835517207575        3.16779681023686        5.69222225496580
H            8.92767022487371        3.82496555990719        3.88846352067074
H           10.25610870750953        3.75154484855353        2.42401291304481
H           11.75745740192612        4.23503675469162        0.55770712011853
H            8.57839451187667        3.87506153478212       -2.17840898712184
H            6.62081585022834        3.91086590918654       -2.46490252123908
H            2.74955827360302        3.40353653636046       -0.89008815093329
H            3.68180320936054        2.92763839103386        1.32714913938996
