69
 energy: -15.232228719733 gnorm: 0.000967617522 xtb: 6.6.1 (8d0f1dd)
C            0.96161642681386        1.87697663052985        0.52767333360486
C            2.16657763161265        1.98808228267626        0.60020843088247
C            3.57500191678777        2.09599895338056        0.65044615818805
N            4.24209944909146        1.39770893651585       -0.46321225770947
C            4.57895204622541        0.03582880087585       -0.48208074716000
C            4.45316010031892       -0.96209838042504        0.48761398607674
C            4.87058976292452       -2.23426474194635        0.18310008890733
C            5.41124859984357       -2.53676839423186       -1.07202147849482
C            5.53862427568395       -1.56885403434823       -2.03911384086170
C            5.11925058436290       -0.26926035287941       -1.74549511604198
C            5.09311071693390        0.94629839328204       -2.52607285753402
C            5.48416534506676        1.22854189425301       -3.83209119347435
C            5.31625104569901        2.51315138396357       -4.33783774846253
C            5.73711194946551        2.79283751981468       -5.69271135628082
C            5.59912058454383        3.96540448936541       -6.33759894635109
C            6.04282152219120        4.19221865247533       -7.67129944765377
C            6.70587878847889        3.29745736096188       -8.56954277638162
Cl           7.13947603562545        1.64922608011228       -8.23433476915940
C            6.96124793231710        3.95725203111769       -9.75810053876346
C            7.63719952705223        3.36540197252916      -10.93422039251783
C            6.43904260007862        5.28452434925812       -9.62554468683972
N            5.91474893296099        5.35138128722583       -8.35060096678089
B            5.26327508513768        6.59799771590242       -7.74764635971801
F            3.93588063381660        6.31548169040485       -7.42303862306860
F            5.98502083600208        6.99909861577188       -6.62301252033804
N            5.29927085252455        7.71228124540233       -8.79583213775441
C            4.79552448315009        8.93209322838199       -8.58670056578402
C            4.15603817327366        9.41030141300457       -7.35132851066948
C            5.00196707643551        9.64726561720266       -9.79309327705912
Cl           4.53877327315678       11.30081566371730      -10.07965992535950
C            5.63155243234669        8.81844550139157      -10.71340909251988
C            6.01587076242458        9.20255909803495      -12.09008490422408
C            5.83603765421351        7.56363435293822      -10.06787994724610
C            6.42269214199981        6.36606191436516      -10.53383680513158
C            6.98804536467529        6.25082243408885      -11.90004544379239
C            6.28197862773855        5.59801981338782      -12.91688090258060
C            6.81152045954144        5.49435450312106      -14.18783594355924
C            8.05154182812199        6.03528281514419      -14.47384136517305
I            8.85159891052717        5.87405981376558      -16.40990360838361
C            8.76340676844978        6.68277350427204      -13.48078043905228
C            8.24164904471696        6.79185093723533      -12.20703227864901
C            4.74272699984575        3.50843974927593       -3.50793013168857
C            4.35568355375276        3.24320773531184       -2.22149731955833
C            4.53444533556249        1.95223999958583       -1.71373955593990
H           -0.09844914195271        1.77863024668900        0.45945535761653
H            3.95873708745972        1.68756170230626        1.59095121274926
H            3.88117581878617        3.14687310023895        0.63042504794102
H            4.03108166479605       -0.72549401747827        1.44821527846849
H            4.77938246738365       -3.01482065005290        0.92126292002008
H            5.72911070176158       -3.54513861384133       -1.28282806069236
H            5.94760793646309       -1.79387672642038       -3.00861436372854
H            5.91060005567266        0.45392676449024       -4.44297154986869
H            6.20575532069521        1.98599511320596       -6.22663562499854
H            5.13040090361847        4.79947631800122       -5.84939072080428
H            8.11808008342232        2.42233927702854      -10.67100118729008
H            8.40543514356759        4.03559724320002      -11.32214758211931
H            6.92288929366941        3.16599714430006      -11.73384890490223
H            4.15395566393402        8.61926870398156       -6.59966932342047
H            3.12325002289044        9.70619531558751       -7.53875815573674
H            4.69174864643229       10.26821630770533       -6.94353932159862
H            5.56105080077014       10.15437743230638      -12.36870027115129
H            5.68938561190570        8.45171087109954      -12.81122166905321
H            7.09806579263689        9.30993824981391      -12.17604400181495
H            5.31546473187709        5.18065100400320      -12.69223146425093
H            6.26432525472629        4.99172674672295      -14.97038740123213
H            9.73054511457742        7.10010570475474      -13.71527631641202
H            8.79554606898092        7.29369269069604      -11.43233199340215
H            4.61098326610188        4.50156601328686       -3.89836943356284
H            3.91712561874217        4.00501158231887       -1.60170569084817
