86
 energy: -17.070423852585 gnorm: 0.000755392117 xtb: 6.6.1 (8d0f1dd)
C            1.01643414135506        0.14168724339012       -0.15624695600812
C            2.48429296183123        0.31993804785554       -0.55693211178206
C            2.62477928937618        1.48436514903546       -1.54134222012544
C            3.33335378766607        0.58845155080830        0.68907952616078
N            2.96467616048827       -0.91432269706774       -1.22083340092211
C            4.25278985429721       -0.99870557483429       -1.72041816131403
O            5.10230921941135       -0.16505586660762       -1.44322165722253
C            4.56828436169253       -2.10660574044676       -2.66230254846146
C            3.85456966271037       -2.13699227659777       -3.84584468323063
C            4.30637910080236       -2.85742619914020       -4.93303055846471
C            5.46911827210780       -3.59923181319813       -4.86042303682977
C            6.10878599983090       -4.01056897395258       -6.13825640878290
O            7.28766196752515       -3.76384647951368       -6.34383913453774
N            5.33047938464598       -4.64738367079650       -7.08703778759553
C            5.83193111074779       -4.89166697384328       -8.45874313413092
C            7.08551352213983       -5.76907905859225       -8.38974892856089
C            4.74763454593260       -5.59897237813941       -9.27759859737655
C            6.17578846021109       -3.54138414499099       -9.09262700211569
C            6.13437373989986       -3.74635559939445       -3.60530871708701
C            5.70671989869855       -2.95114548569728       -2.50753354339958
C            6.58649951617331       -2.88586005022814       -1.35689620650541
C            6.18050753313176       -2.47153807234641       -0.02080382759843
C            4.87447653268006       -2.68983089012650        0.45010912148009
C            4.52350447082542       -2.36915240810184        1.72994726595655
C            5.46662765080688       -1.81174039423254        2.58855454306348
Cl           5.00835921134826       -1.34194440989631        4.18184716341032
C            6.76354276471852       -1.62276999986228        2.16575538109652
C            7.15646911444584       -1.96697159390718        0.87090894905461
C            8.53524094424815       -1.82806873194783        0.41363583611808
C            9.47343075404929       -1.06621929957288        1.11335855000266
C           10.75248823490912       -0.89706541888577        0.63307296353016
Cl          11.88309722495073        0.04548094119713        1.52961765829400
C           11.12790433625328       -1.47101574059107       -0.57789622179561
C           10.23200355445438       -2.22729416027955       -1.27963779663903
C            8.93610112691456       -2.46300845625616       -0.78636520191682
C            7.95349677082732       -3.22913280891696       -1.54901212924556
C            8.25861457821581       -4.30353302901039       -2.47485049733357
C            9.44084510009302       -5.14615522380008       -2.34748368761387
C           10.32371763014428       -5.04305599954087       -1.25494861780558
C           11.47694268046595       -5.77269560809066       -1.18750614022159
C           11.78812174596672       -6.66940861779559       -2.20234303330084
Cl          13.26039954706368       -7.56421704918596       -2.15010924313410
C           10.90203363196611       -6.86896420997357       -3.23526636768213
C            9.70125585917125       -6.15468446866470       -3.31047438401985
C            8.64637667701147       -6.54611376875500       -4.23309061489347
C            8.75811449191343       -7.67924112112101       -5.04609315705973
C            7.67215671692306       -8.17599246792975       -5.73073595256622
Cl           7.85950826444929       -9.54201415039216       -6.76405573286317
C            6.42650054185934       -7.57484649386276       -5.58917205448381
C            6.30119122982699       -6.44608939286011       -4.83185671575456
C            7.40939334510527       -5.86208993426529       -4.18956297052812
C            7.28235484418812       -4.62793794208788       -3.43171216141600
H            0.63785229500270        1.03061948109997        0.34667647445344
H            0.90408018530552       -0.70477423130039        0.51961878368761
H            0.39581866214162       -0.04210706784173       -1.03203773744328
H            2.28946735532997        2.42060338480010       -1.09722828033450
H            2.03905623897632        1.30017224006786       -2.44053056854368
H            3.66705744660401        1.59726561126100       -1.83822181106681
H            3.06278202489840        1.53435435478191        1.15608451261661
H            4.38943337670313        0.62386186791091        0.42382441703394
H            3.19884695008709       -0.20232602545983        1.42370149358503
H            2.22967224293456       -1.51712375895237       -1.59220242580715
H            3.00796196265611       -1.48090979068447       -3.95552035194730
H            3.81429729757877       -2.75271932848839       -5.88469175198008
H            4.32752480322644       -4.77552527309440       -6.94693215110028
H            6.84717732926628       -6.74986677622542       -7.98411547283029
H            7.82964860189874       -5.30999302599986       -7.73974870163535
H            7.52645653373651       -5.90739936149445       -9.37588319281040
H            4.47635552995029       -6.54721238168816       -8.81604799368465
H            5.09269980071765       -5.80101350039344      -10.29080552449821
H            3.84988083422165       -4.98615803796673       -9.34177162462989
H            6.93167371232046       -3.03190639953155       -8.49582925422811
H            5.29573730299665       -2.90169981115398       -9.13361192172660
H            6.55996245813612       -3.66474603141331      -10.10421308992519
H            4.15010899716227       -3.12920059875787       -0.21303536879914
H            3.52350524590202       -2.54036425647749        2.09053610924651
H            7.47504037135524       -1.23028751674982        2.86790000705255
H            9.20203394932128       -0.56470326989419        2.02339496736160
H           12.12337867498742       -1.29971622628599       -0.95059124724599
H           10.50800393228299       -2.64223274982158       -2.23353875365589
H           10.07218373760094       -4.39716018539445       -0.43448272971130
H           12.15312755162285       -5.66920304184369       -0.35589475670477
H           11.14871521839606       -7.61237011329794       -3.96958972065772
H            9.68804108780005       -8.20899891475082       -5.13071559464898
H            5.57690203395288       -8.00441464685483       -6.09220645405527
H            5.33405418845924       -5.98946270509442       -4.71985594119814
