60
 energy: -12.542765476045 gnorm: 0.000659418074 xtb: 6.6.1 (8d0f1dd)
C            2.47645078505065       -3.13476950020232        0.92446848687881
C            3.91893122771706       -3.45332543566956        0.51782930566698
C            4.03177293814140       -4.92724912407935        0.11882292302148
C            4.34558541168978       -2.56124369414188       -0.65044906277971
N            4.82040145966593       -3.18977906392895        1.66207737906206
C            6.18600102152490       -3.38712519342049        1.56741653964410
O            6.69193855856016       -3.92740724714174        0.59490035876341
C            7.03889935305838       -2.89118296518212        2.67844698928280
C            6.89964243468172       -1.55779860484166        3.05952633660227
C            7.80348950511693       -0.95310714155573        3.89357254316206
C            8.93513763065820       -1.64414705116884        4.33361107352970
C            9.93320056842231       -1.00764357501969        5.13053052002818
C           11.05003330009768       -1.66630440032402        5.50574432945069
C           11.27777110495530       -3.01842549972461        5.10596138683363
C           12.43299430661486       -3.70413210550052        5.48546866741441
C           12.62365893680515       -5.01167927935516        5.10735636993869
C           11.69228432100478       -5.65643719217025        4.31933592327298
C           10.54493256808325       -5.00571598517539        3.86134606630226
C           10.30923186043768       -3.68066748937981        4.31127569729188
C            9.10522561889380       -2.99822332163306        3.95615806235757
C            8.09407950712780       -3.66742140741262        3.21646875647555
C            8.24419972907413       -5.10207270520385        2.98401880286701
C            7.10475916512199       -5.99765164679244        2.80794532859092
C            5.81816701816906       -5.63628897011716        3.23787378239411
C            4.76125298133639       -6.49783566870962        3.13613443391703
C            4.95213253589611       -7.76642087259085        2.61054613738959
C            6.20331311402840       -8.16695255804826        2.22319580725785
C            7.31049965417630       -7.31147909910945        2.33368361467820
C            8.65959077613567       -7.74906411239946        2.00607667490972
C            8.90565448328315       -8.95406154619350        1.33033407158963
C           10.17679197490220       -9.33377163378887        0.99072860420580
C           11.25070531543808       -8.51092964391997        1.29363810547342
C           11.04355502687421       -7.33284808342841        1.95766238465273
C            9.75931981499013       -6.93971377792798        2.37124467712142
C            9.52624911327930       -5.67421089772802        3.05968607673392
H            1.78734347957723       -3.32701657237006        0.10294741158394
H            2.37789852868665       -2.08888905376106        1.21187188488007
H            2.17342419652013       -3.74680638967930        1.77290366042390
H            3.42992513004071       -5.14564433154707       -0.76256767899929
H            3.69650538407606       -5.57210340351839        0.92877418061955
H            5.06889919505125       -5.17831832441934       -0.10026341061469
H            3.71824055280377       -2.72746604539371       -1.52539155025166
H            5.37949343602090       -2.77108975743730       -0.92260654936270
H            4.28056924222077       -1.50990804734170       -0.37338281555200
H            4.42043741924960       -2.64197742067347        2.42518342240287
H            6.08657139716463       -0.98592256882696        2.64620228732738
H            7.67858200912614        0.07923124308860        4.17164408715891
H            9.78155769596560        0.01626166623873        5.42600205470118
H           11.79416089797030       -1.17443506902023        6.10800209215553
H           13.16505817710675       -3.20247725770264        6.09463469179677
H           13.50365893077166       -5.54015121471515        5.43629809204505
H           11.82526032814856       -6.70249543839012        4.11026631691155
H            5.66992667039637       -4.66414603287481        3.67341739481398
H            3.78175130622278       -6.19281041140264        3.46697562578429
H            4.11722068940879       -8.44258343846637        2.52395277614392
H            6.33781842636754       -9.16814028763875        1.85620286999677
H            8.08219377904811       -9.58480945081025        1.04898418676676
H           10.34262906709357      -10.26080950997588        0.46642276213517
H           12.24571649028508       -8.79299564471263        0.98955941950709
H           11.87113444966407       -6.66192074566826        2.10631963364838
