52
 energy: -10.424354353055 gnorm: 0.000411663739 xtb: 6.6.1 (8d0f1dd)
C            1.38600321420682        0.16586261570132        0.91477925920273
C            2.80371681016205        0.72436441953556        0.77663381623671
C            3.21135297817775        0.76467713254338       -0.69889534193690
C            2.88335852883970        2.13373889186088        1.37306206419450
N            3.72900736086086       -0.16375804640559        1.51252058694033
C            3.91935579724517       -1.48449386748760        1.15103995317510
O            3.39588110904638       -1.96191035318026        0.15606981839611
C            4.74106220163670       -2.34355457135971        2.03748113906234
C            4.34698009230168       -3.65664785495464        2.16008773277356
C            4.87075551003222       -4.48455713782522        3.14649747660535
C            5.74487059509580       -3.97941097020901        4.06361498127391
C            6.18474990076132       -2.64434646230688        3.97691785482249
C            6.97517861435015       -2.07357404849906        5.00309142470475
C            7.33928494788318       -0.76908518467835        4.95619822584057
C            7.05922457163972        0.03556395841788        3.82419143394403
C            7.42267460038191        1.44545989503347        3.79155637809436
C            7.80033332403553        2.12665369084540        4.95364225773725
C            8.08820685843247        3.47092446129514        4.93269977183264
Cl           8.53707974832285        4.27248093704744        6.39257178229339
C            8.00268821650961        4.18212077278522        3.74138229182183
C            7.63427686977611        3.54317366485020        2.58979345836517
C            7.33823525226481        2.16812211285831        2.57831798655554
C            6.99444262909472        1.46701531458502        1.35422528192954
C            7.14119430310711        2.07227307540246        0.09274352678688
C            6.92537351296434        1.37388148001092       -1.06259256673930
C            6.56418319844438        0.03338213448756       -1.00285221434931
Cl           6.30549103461084       -0.86143189824551       -2.45326688251770
C            6.40044149826512       -0.58028747598149        0.21539029939741
C            6.56891969568199        0.11779268157973        1.41659913299143
C            6.43132596577919       -0.54893528384559        2.70994119311237
C            5.79162776012654       -1.84051415860726        2.87406080218793
H            0.66303571086777        0.78414638270847        0.38441756524426
H            1.09451364478677        0.11625138228016        1.96271786075076
H            1.34252238400976       -0.84363512963510        0.50757091917930
H            2.51568314762015        1.36275975414406       -1.28589987433699
H            3.23443475670474       -0.24376010623470       -1.11056936628637
H            4.20640934106156        1.19076952697924       -0.80887651898420
H            2.22324822436073        2.82027444642723        0.84452712048436
H            3.89990749727095        2.51951612942454        1.30663718042436
H            2.59553726277021        2.12631759115235        2.42329240800030
H            4.02260698265054        0.17195306817896        2.43042714069835
H            3.57718201761572       -4.02078793885176        1.50052471016624
H            4.54159523565579       -5.50808063858704        3.21787441839176
H            6.10030725547690       -4.59553579363353        4.87144118752597
H            7.23914493485194       -2.68061186605244        5.85181139265015
H            7.90934326414335       -0.35682632661912        5.76888215587442
H            7.83832653980179        1.61946419026673        5.89921371964009
H            8.22587842938343        5.23544368692642        3.74618875639001
H            7.55703093601504        4.11401673627026        1.68280694249068
H            7.46295318624761        3.09504716803601        0.02526706245095
H            7.04978825958561        1.83860332153329       -2.02591298423586
H            6.13897428908568       -1.62238550996372        0.22638527874230
