52
 energy: -9.257796214722 gnorm: 0.000404862579 xtb: 6.6.1 (8d0f1dd)
C            1.30093554960717        0.18963285695719       -0.54234597804411
C            2.80807488546027       -0.07125400772317       -0.45204346676461
C            3.39415141498707       -0.23390535772562       -1.85702924342107
C            3.49884213508214        1.08639281122153        0.27235761625537
N            3.04399338223740       -1.31853091922754        0.30837822931501
C            4.31754103272368       -1.80776082295263        0.52786257114319
O            5.30419956666108       -1.25717942610855        0.06414187256745
C            4.45119437432453       -3.04937433135299        1.33194290021086
C            3.63568277257151       -4.11138311515119        1.00662940703034
C            3.85029903632101       -5.37998229273062        1.53250114841267
C            4.92697617100492       -5.61043722576488        2.33687475774778
C            5.79588674939024       -4.56085957700915        2.69105972643944
C            6.98561814552907       -4.81942696009494        3.41168535226005
C            7.86813722308690       -3.82656303958595        3.67832720707677
C            7.58796081933298       -2.47568497040012        3.35013756246773
C            8.56445803954777       -1.41698119545613        3.58966052173046
C            9.87957392969945       -1.76690930033546        3.95856760648007
C           10.82169152340142       -0.95050431122576        4.47479247387044
C           10.58028195065667        0.03519751407861        5.39281530614192
F           14.01197266818962        7.88320864196328        8.49288199065468
C            9.13470543619471        0.89341988769024        3.22137336131432
C            8.18118967389047       -0.06993365551106        3.34008201470388
C            6.77114825484421        0.26749689177253        3.16188701818049
C            6.38321821112620        1.62355866080143        3.26338093824739
C            5.14258537666900        2.13461240955613        3.11072747551335
F            4.67750256958711        3.34448475303834        3.11923256161657
C            1.18460277235302        3.26107709438948       -0.02663373310364
C            4.51155260701789       -0.55647725342029        3.02500645253842
C            5.84282368349067       -0.78535446209585        2.94697380775847
C            6.32911144493405       -2.16005398892406        2.80854041863334
C            5.50530178888656       -3.23322584054405        2.28458620446207
H            1.09597622845191        1.09978745826007       -1.10434630200437
H            0.86968584614637        0.30527501793994        0.45076791189952
H            0.79488966397996       -0.63773439101564       -1.03732432344146
H            3.25579728722644        0.66906074860485       -2.45030512731508
H            2.91920934034969       -1.06502161325862       -2.37588980332312
H            4.46084068246946       -0.44639355869601       -1.79417652136259
H            3.36871775881775        2.02419748155257       -0.26600636552904
H            4.56541855167468        0.88545000185793        0.36855895742349
H            3.08879943639117        1.20903890819848        1.27339204585048
H            2.23464450008491       -1.71353409800000        0.78987033224472
H            2.85239773625000       -3.96026833801764        0.28386651207691
H            3.19548724513355       -6.19123462513821        1.25993824213398
H            5.13359640069989       -6.60386018658373        2.69597090778817
H            7.20470193507699       -5.83248714302996        3.70204660317210
H            8.77176108838651       -4.06637412251953        4.20866107383953
H           10.17917614329368       -2.79181235628952        3.82091444330946
H           11.84014936086774        0.51725047795955        7.50437278796059
H            8.96937158317722        1.88676823483166        2.92981003105477
H            7.14969584720469        2.33709660619028        3.50493980450537
H           -0.19987112356357        5.10134598338075        0.16200701911886
H            3.78004129857557       -1.30700995641782        2.98350769043628
