52
 energy: -6.444701037863 gnorm: 0.018400653385 xtb: 6.6.1 (8d0f1dd)
C            2.22908383649481       -0.19158797427640       -0.61088766645522
C            3.64186293906304        0.10425272689534       -0.07258012157792
C            4.64002811216085       -0.08299355288476       -1.18657514361548
C            3.69266486418202        1.48410183182653        0.43506861484629
N            3.91969659564791       -0.83068077680833        0.99108501009952
C            5.11463818107658       -0.81567994836453        1.62000618430176
O            6.00248253273729       -0.02289379327598        1.33666165371596
C            5.32439545390698       -1.79478003179077        2.65392227678627
C            4.70655913497598       -2.94444204530052        2.74567730988469
C            4.86277813123836       -3.88108608457029        3.68191905407550
C            5.61543603788935       -3.87362924144821        4.75403736118344
C            6.39282999627998       -2.88750551912971        5.20938291398309
C            7.07649857924668       -2.87441561892111        6.36844389308542
C            7.83377960309361       -1.91163822427777        6.80501257490764
C            8.06329609069362       -0.73457055224139        6.20842235267025
C            8.79589161505174        0.30438416877017        6.69905158224529
C            9.39475979594717        0.36026753557800        7.87385398159085
C           10.09349937346296        1.37138294047468        8.34906162606766
C           10.25592699336729        2.53206356868112        7.65928219439893
C            7.31293970969310        4.27651032729833        0.46359974002490
C            6.03645250477830        4.33793937568106        0.23116035261737
C            5.39025207709824        3.96378584809040       -0.87299440743836
C            5.93100285143291        3.44867513362597       -2.00970646117507
C            5.31906839751302        2.98110078449438       -3.13115249047012
C            3.96703551204792        2.93826140521915       -3.38322492518759
C            2.94797249661842        3.37266426222503       -2.57330665203698
C            2.79739156273153        4.61560803009141       -1.98441668519560
C            4.67918053752698        0.24579889846450        5.54250622683261
C            3.89490260604794       -0.68420520671571        5.85896160054279
H            2.58511231322507        0.02247641106213       -3.87232495090877
H            0.51677700641869        2.39538437136332        0.05640737949527
H            1.49401092975686       -0.12567316096221        0.19037338997615
H            1.95511815814438        0.51730049547415       -1.39122319310647
H            2.18532604086898       -1.19636727972007       -1.02766560360386
H            5.64667991662292        0.00091193415026       -0.82866815340282
H            1.03612298682448        4.67086576321352       -1.11417300454960
H            4.48209334339688        0.60357938473447       -1.99423638995670
H            3.09278836954119        1.61536462029672        1.28914793487817
H            2.41551255731165       -1.59835011803816        3.54359876460731
H            2.59797031650264       -3.16894049455944        0.96640901800346
H            2.99223685471356       -3.51824543123125        6.16627988968920
H            7.20458956530003       -4.70976873809466        8.69638606823256
H            9.35517803778648       -2.06588328167902        9.46472478232711
H           11.36782626707132        1.49898723972941        5.38579511276313
H            8.29012496442181        4.09350603061388        8.54973184651027
H           11.49679551896471        4.51153040546674        6.77390159480077
H            6.05634615257615        2.97261346204439        3.15944490277931
H            8.00435724396128        3.89963219321354       -0.23213793731705
H            9.42388838123188        2.84101451983832       -5.38526060883428
H            5.97924606002847        2.56164304969641       -3.87808000857692
H            3.65904851257578        2.44296977537452       -4.29164616807518
H            6.42142439664176        1.82828059141163        0.86700338638986
