35
 energy: -6.405644772901 gnorm: 0.000494947062 xtb: 6.6.1 (8d0f1dd)
C            0.95689348744443        0.28278798704724        0.19573502459782
C            2.45313875013873       -0.03187356066099        0.06728913569884
C            3.16631096642577        0.28862117388382        1.38477999988089
C            2.62204150008948       -1.51323863256134       -0.26602135720395
N            3.03805806682807        0.84903385550376       -1.00547305332169
C            4.35382816079223        1.04247883526603       -1.30396584780789
C            5.31021755683758       -0.00561748449368       -1.54136353868211
C            5.15974608256747       -1.31378850822146       -2.02403376828906
C            6.43248803663250       -1.86031619159837       -2.19818500864342
C            7.37467986425140       -0.89761828851936       -1.85269472727652
N            6.68196262195202        0.19705364504155       -1.48654562811723
B            7.32108702871709        1.53328527655506       -1.10419525438425
F            7.71626278171514        1.47822263566127        0.22925565652539
F            8.38762793649803        1.79360705652804       -1.95841279057840
N            6.26802727121143        2.63272130752503       -1.26039027480963
C            6.52448009430748        3.95408228554290       -1.22598678258495
C            5.28937626447937        4.59488921139672       -1.24934327432438
C            4.28764028661050        3.62336084549079       -1.29060152322786
C            4.90791117089702        2.36789633205398       -1.30945029560506
H            0.49224710121174       -0.33453723327268        0.96356149944070
H            0.44410367071165        0.09493965599126       -0.74649691245988
H            0.79770919816941        1.32622273971111        0.46423754250202
H            2.77058292631011       -0.31121606060445        2.20324253692401
H            3.04494986580995        1.33998226044854        1.64116587722138
H            4.23396976636436        0.09031778323065        1.30030619802769
H            2.08115285081010       -2.13472791491235        0.44693917663149
H            3.66895115298849       -1.80439142278549       -0.21823363230005
H            2.23711700639013       -1.73003793450292       -1.26115262041456
H            2.48064882520155        1.69912201708503       -0.99412195037204
H            4.23312026432743       -1.77495850065341       -2.31959671840420
H            6.65125766833891       -2.84828632584019       -2.57076903391945
H            8.44970152153882       -0.96461579661979       -1.88906728731215
H            7.50816517398054        4.39104257632311       -1.17151167342746
H            5.13420847414252        5.66166513216689       -1.22435245151949
H            3.22651660530807        3.80550124279329       -1.30869724246494
