58
 energy: -11.782738819682 gnorm: 0.000563534656 xtb: 6.6.1 (8d0f1dd)
C            0.97064411340829        0.14028748675604        0.68128898330654
C            2.41117705443021       -0.31505691604409        0.42673446464649
C            2.41342121393606       -1.68161791272409       -0.26583350730031
C            3.12792604298055        0.71067503447743       -0.45521047005938
N            3.11961656866817       -0.42864702477974        1.73660469963374
C            4.51096421690021       -0.67095213665812        1.79258919121214
C            5.19834947321527       -1.91057383209125        1.74875961303799
C            4.61396710973945       -3.24925444622141        1.81996823743273
C            3.45001165143019       -3.52229401014961        2.54073053291673
C            2.93450139842528       -4.79310415417776        2.58307379530530
C            3.55178940315888       -5.84329424093525        1.90898811864447
C            2.95615625021106       -7.18198197640752        1.98694914648766
C            3.26109704308024       -8.15621025361317        1.07948403333798
C            2.66934614357096       -9.44318054648318        1.16699599651239
O            2.92342939037478      -10.33534721286989        0.34552376169721
C            1.76811059227011       -9.65398721083586        2.24487830760158
C            1.49189800270408       -8.65666130181151        3.13447041636716
C            0.56855861515443       -8.85350965574071        4.26252735539135
C            0.12873732368147      -10.11104983002416        4.67327059092238
C           -0.72952959987066      -10.23905815251878        5.74312878792668
C           -1.16229738238810       -9.11979414104521        6.42537004350305
C           -0.73010978113972       -7.86828564966586        6.03643289289483
C            0.12772678187701       -7.73876049383060        4.96720778748611
O            2.06288707276263       -7.40569588634319        3.01537458853193
C            4.73140103999578       -5.57916320821462        1.21115838149129
C            5.25204549518578       -4.30950992920075        1.17494860595538
N            6.52048457402532       -1.70450491917378        1.54756575314120
C            6.69609895992884       -0.38932822557820        1.49897384585668
C            7.89369330776468        0.33264217597191        1.30492054319943
C            7.84361015452690        1.68879636016808        1.28572234093178
C            6.61666896380126        2.37398090514052        1.46198301578946
C            5.46585125611306        1.68975843124054        1.64244865829546
N            5.48135848660929        0.29840137856345        1.64851620708557
H            0.42744693146847        0.26159584254918       -0.25516775375548
H            0.95862450960526        1.09349286468810        1.20782875970395
H            0.43486807751239       -0.58627062482989        1.29058844118648
H            1.90006267453661       -1.63558468142005       -1.22543318602622
H            1.91514576139951       -2.42941364803925        0.34924917567150
H            3.43291551913902       -2.01998695579375       -0.44436852305110
H            2.65171972294424        0.78969679471471       -1.43173811794671
H            4.16833211235613        0.42671263064173       -0.60661007430299
H            3.11094009201267        1.69469641109747        0.00960648202531
H            2.52544435297526       -0.97582556584878        2.35270525334471
H            2.98010142345541       -2.73687885137231        3.10253351693820
H            2.04237731006990       -5.00270716745836        3.14747726429708
H            3.93273422500818       -7.96721288497042        0.26519180866775
H            1.30164434220867      -10.61603338845990        2.32241467487165
H            0.47419219372968      -10.99220742293106        4.16307246437205
H           -1.06178376106210      -11.21698473505938        6.05105748706120
H           -1.83312551054171       -9.22360452732982        7.26236686537738
H           -1.06173256112044       -6.99309360162550        6.57065856062475
H            0.47701231229262       -6.76804819287941        4.66023455533683
H            5.25034640059861       -6.38246678031017        0.71926533349242
H            6.16835618850639       -4.11037246596770        0.64666144438165
H            8.81716968094240       -0.20311605425763        1.17852492091851
H            8.74807700860658        2.25597296815780        1.14040368857278
H            6.60675550929254        3.45111412799938        1.45843723394226
H            4.52828454752853        2.18949740350778        1.80316500510393
