52
 energy: -7.880161442855 gnorm: 0.000395721076 xtb: 6.6.1 (8d0f1dd)
C            0.88242245535461        0.48928704102016       -0.90820468466675
C            2.25901439215096        0.19647476058940       -0.28818804896212
C            2.84263280219279        1.49787470791039        0.27465842096665
C            2.09648367148748       -0.86191956582433        0.80943684923744
N            3.15516631702988       -0.32664465617204       -1.36136364524102
C            4.46640900785645       -0.72779374452870       -1.34864606324474
C            5.29163690407346       -0.75698817316803       -0.21777981768285
C            6.59449961534040       -1.18391187477455       -0.29266135579499
F            7.33860671539707       -1.22288050410174        0.83082423711930
C            7.12859662045227       -1.59303504009448       -1.52708520536685
C            8.51405935321610       -2.05155495257102       -1.69357418059277
O            8.88859173764783       -2.38753646199351       -2.80053796583748
C            9.45890649874125       -2.11606430628153       -0.54606177399263
C            9.38902859439163       -3.14374472262661        0.38985322251359
C           10.30700098451243       -3.25488466747963        1.40549198482056
F           10.17696109972124       -4.25234908454256        2.29241195708315
C           11.36508678303192       -2.32275833881953        1.50967398287646
N           12.33887510052292       -2.38905712706329        2.47884239546945
C           12.58918498390251       -3.37340252925191        3.57222576777937
C           11.41906966710430       -3.34401957873602        4.56414773403121
C           12.78344099248413       -4.77276171282354        2.97228072931502
C           13.87647622190471       -2.96939546807702        4.31008916622085
C           11.41949791547055       -1.28747994453343        0.56454297721277
C           10.49535519864901       -1.17678835408529       -0.44176769501631
F           10.56426197471785       -0.14950961486403       -1.31264328636993
C            6.31599156017750       -1.56140746417572       -2.65295983488422
C            5.01176855429780       -1.14421639887346       -2.58005584619357
F            4.22889192969024       -1.12415759619081       -3.67313795705723
H            0.18934443290592        0.87539026650731       -0.16214716558686
H            0.44868300769068       -0.41483835073652       -1.33314621234145
H            0.96452686649977        1.22773930771353       -1.70445491624833
H            2.17916671182939        1.93555722658698        1.01926792244122
H            2.98423161269601        2.22585195481568       -0.52289265951784
H            3.80949258076009        1.33422470123625        0.74380991685676
H            1.39935748629718       -0.52671836117383        1.57617839719302
H            3.04203956225538       -1.08737866126751        1.29541433197542
H            1.71476226004885       -1.79044764963917        0.38744694564169
H            2.68399500281373       -0.35977141094781       -2.26134201554600
H            4.92349372476975       -0.44887476989041        0.74027444866486
H            8.60279857247423       -3.87470527250771        0.32067268473923
H           13.06052895236907       -1.67255628192693        2.47071070561797
H           10.48419144537996       -3.61443770683467        4.07887865484619
H           11.29621610403294       -2.34460321263361        4.97850916141287
H           11.58364967436157       -4.03759234014228        5.38748216540425
H           11.89369232811243       -5.10305371331887        2.44154251059121
H           13.00237007408208       -5.50600861153843        3.74719407931583
H           13.60802411429863       -4.77128444212860        2.26109763295190
H           13.78229409410573       -1.97302003099516        4.73914818519337
H           14.72776450995043       -2.96422182253600        3.63099722480828
H           14.09820942031012       -3.66335776375525        5.11965523692597
H           12.20640729961907       -0.55739381596358        0.61514277706577
H            6.72416251085235       -1.86778386677980       -3.60199207614395
