67
 energy: -11.729688640215 gnorm: 0.000789910942 xtb: 6.6.1 (8d0f1dd)
C            0.97431616550831        0.23444365133211        0.44857233784414
C            2.46871116075580        0.56097923273741        0.50959410772366
C            2.68602359492867        1.95825348115230        1.09617870798063
C            3.18737061368424       -0.47841525510473        1.37027619949563
N            3.01818129395872        0.53714571681440       -0.87951712483286
C            4.40701100830265        0.64703307500315       -1.11255115674628
O            5.01960904577354        1.82093587916089       -1.43544715634070
C            6.37033826724441        1.56840109022335       -1.52470467522921
C            7.31466787943664        2.59724851780872       -1.86504259634728
C            8.65165926501849        2.46532437994189       -1.82405374065840
C            9.61515293784308        3.48285401577566       -2.18718522362709
C           10.97808009226270        3.22479882629839       -2.02266163599819
C           11.92286691179141        4.16591521230973       -2.36301628676053
C           11.53118572351195        5.38555314997872       -2.87795024042207
C           10.18896505301602        5.66014764679116       -3.05060242026700
C            9.23977084185334        4.72253225326130       -2.71036548530430
C            6.61067936099997        0.21026734752719       -1.27011219826459
C            7.90126809962354       -0.52347229191633       -1.35108367509507
O            8.83014383855412       -0.21115683849663       -0.62811030483212
O            7.94133117701142       -1.53275392568532       -2.28517232119766
C            9.07134370500132       -2.42535327075150       -2.13585337084168
C           10.37726970949242       -1.67750237361811       -2.42061358469136
C            9.06250671576450       -3.00347276979703       -0.71523639863600
C            8.89599118489649       -3.55997357820816       -3.15292533439275
C            5.36196640672454       -0.38187190121829       -1.01121763722433
C            5.10514004728474       -1.80544099252315       -0.73256288661684
O            5.98943829246050       -2.51299522830292       -0.28099178621698
O            3.83663077851931       -2.25124162418160       -1.02213361187348
C            3.67750497599540       -3.69193298101845       -0.95546569254844
C            4.65546031745523       -4.35534971007873       -1.93192154396973
C            3.91267283895258       -4.19500122793187        0.47286987154814
C            2.23833229524449       -4.01228600926026       -1.37811448460503
H            0.53465876847228        0.22205037647886        1.44527902559881
H            0.81820012154939       -0.74283370275777       -0.00631146999460
H            0.43929811576693        0.97148312914150       -0.14882152096416
H            2.31382489352988        2.01759168881402        2.11826586511850
H            2.17245451919492        2.71266452167755        0.50183164346508
H            3.74669241228303        2.20652546633024        1.10226855111889
H            2.77880486255539       -0.50768062173345        2.37963343732564
H            4.25120740004098       -0.25615961079042        1.43949990227168
H            3.08088166412975       -1.46587457632014        0.92720717999334
H            2.47238806103184        1.21703741249456       -1.40195666841914
H            6.88664615161402        3.53778408365893       -2.15607502800663
H            9.05203876503201        1.53552708058221       -1.46694424727979
H           11.28390650823649        2.27395775953197       -1.62055861862348
H           12.97034930093939        3.95201800194761       -2.22648039761427
H           12.27066191622070        6.12234706116043       -3.14552122471039
H            9.88361916702476        6.61183569025791       -3.45405880270377
H            8.19833925543909        4.94721721667991       -2.85530732712729
H           10.50934115766498       -0.86530583287597       -1.70862766175827
H           10.35671638553846       -1.24600931813056       -3.41965431322552
H           11.23641707368862       -2.34262428421269       -2.34677907154866
H            9.21500595851120       -2.20865830801322        0.01292881517013
H            9.83952419892027       -3.75457937973770       -0.58242976474592
H            8.09217619274125       -3.45088608244004       -0.50503690140380
H            8.86418373659014       -3.15856638222424       -4.16417749800665
H            7.95934572744707       -4.08436552142087       -2.97371136898410
H            9.71277336126948       -4.27764562332989       -3.08996862408194
H            5.68073294139675       -4.12546807459713       -1.64882919954627
H            4.49703718464235       -3.97743453856624       -2.94032184505727
H            4.53320059354692       -5.43743606795975       -1.94192797172284
H            4.91102299510224       -3.92276980150061        0.80976522521566
H            3.81640892371647       -5.27843742759963        0.52706172270590
H            3.19370024609340       -3.75443062624410        1.16063168927349
H            2.05053309773431       -3.64354165637892       -2.38485644708546
H            1.53039742010456       -3.52666036684923       -0.70897526089675
H            2.05068132335798       -5.08498518308059       -1.36100047480178
