47
 energy: -9.200544373817 gnorm: 0.000598419496 xtb: 6.6.1 (8d0f1dd)
C            1.51466127019815       -0.12733701337963        0.96483203237382
C            2.79373985542117       -0.19703921623352        0.11970950757830
C            2.44644292428021        0.01914906339052       -1.35812173988023
C            3.79355398504084        0.85914557692899        0.60828617292401
O            3.36102061006634       -1.51690033669637        0.30669075525978
C            4.52483736754588       -1.71016713349806       -0.37388376790457
O            5.03379510063858       -0.92235540900399       -1.13617370069098
C            5.21580531949174       -3.01928598877150       -0.11129351628160
O            6.10886093961221       -2.90276953602249        0.98046564571058
C            6.81607304250531       -4.06111774438663        1.28359911444922
C            6.66935885521808       -5.29146076473609        0.62028199861573
C            7.38660082775102       -6.38608901121975        1.00923309375476
C            8.27855382001093       -6.33935128479563        2.09285244255521
C            8.50414836254168       -5.08716050241324        2.69806257348263
C            7.74878138109071       -3.98783102587166        2.30689201140400
O            9.47383831562762       -4.89714243596675        3.65862009961267
C           10.34983248600455       -5.91629532644087        3.95549603580510
O           11.26173522966377       -5.71960139296017        4.74213543655858
C           10.15663668581067       -7.23817789956437        3.35004860039565
C           11.12834259776967       -8.31474397335122        3.57118051854886
O           12.15974777687850       -8.10450708153087        4.18853053105394
O           10.88999944057895       -9.56560274088985        3.04758788470238
C            9.67782341839912       -9.83796634980730        2.45072603254140
C            9.40260649573806      -11.16313462184107        2.09976640530776
C            8.17949106599893      -11.51758967266991        1.60153297521555
C            7.18964933116175      -10.55844121642336        1.46020470991605
C            7.44798774554312       -9.24900443001557        1.77445133130510
C            8.71193919282586       -8.84191679717069        2.22022525273905
C            9.04967604104787       -7.47019566605490        2.55548270728243
H            1.03260924771472        0.84474366272911        0.87564984020519
H            1.74686864061273       -0.30561582222241        2.01292080255245
H            0.81160318903854       -0.89455195551321        0.64657427971974
H            1.98732228810958        0.99329037268213       -1.51763869969407
H            1.75822289521464       -0.75041213579940       -1.70160596046675
H            3.34605334376947       -0.04180750802466       -1.96834959467425
H            3.38271329950672        1.86369116725401        0.52441139332775
H            4.70984786692263        0.80789587974195        0.02176598500422
H            4.05667737328125        0.67443221104784        1.64804296340844
H            5.78944363815525       -3.31261973425699       -0.99537936011278
H            4.47582447454793       -3.78877219372074        0.12660530402848
H            5.99606032626528       -5.36898624591516       -0.21336686473857
H            7.32097987757531       -7.28448200407666        0.42184258262346
H            7.91206666777158       -3.04672970829371        2.79760498213391
H           10.17183680300614      -11.89831439709837        2.26007767395419
H            7.97643518714769      -12.54486997732178        1.34724626190960
H            6.21071559540675      -10.84682974713350        1.11431122705625
H            6.64166980149747       -8.53834193269689        1.74756603941509
