49
 energy: -9.354050081009 gnorm: 0.000776061979 xtb: 6.6.1 (8d0f1dd)
C            1.76697551038835       -0.00535818213671        0.88297885016252
C            2.94147291801655        0.44046442295642        0.00247790748595
C            2.46237918587162        1.50221970741055       -0.99437885643244
C            4.06395521820509        0.99237260594628        0.89002723804671
O            3.40905840374605       -0.73195535750432       -0.71280218235933
C            4.47361787995185       -0.49423831962101       -1.53801585171869
O            4.97850273013673        0.60199996934081       -1.70933122816901
N            4.99688643474172       -1.59721058793009       -2.18937296265186
C            6.29058007260291       -1.51933874088046       -2.84860848773340
C            7.39812577937555       -2.11406852908411       -1.97270406661620
C            7.30761359066451       -1.67888849016593       -0.54309651683666
C            7.02424241057830       -2.62787609854693        0.46218466445318
C            6.82319888907749       -2.26595830243890        1.76373536251383
C            6.89268496864860       -0.91122144354948        2.10889980315146
O            6.69149683189862       -0.22302878831970        3.27238754886839
C            6.86764210342221        1.10179160220404        2.93496188492423
C            6.72455032311541        2.19125187722020        3.89845677924460
C            6.51454440027307        1.87010451164075        5.23134954152279
C            6.37496669869649        2.87035776418555        6.15437595792949
C            6.44864567497019        4.16748715819789        5.70827507745199
C            6.65455787081218        4.39657009503002        4.36907850919118
N            6.79065022037005        3.45057491366962        3.45784440882159
N            7.16280622208182        1.28607324124783        1.66079419298650
C            7.19714211107971        0.05019353740153        1.11218165635402
C            7.40595607786557       -0.34996456614045       -0.21526456041828
C            6.22341786277708       -2.18786941945275       -4.20615730124694
O            7.16033468478895       -2.86214651884458       -4.57405605827674
O            5.09294827023660       -1.95350732173488       -4.91361649992366
H            1.36238848739408        0.82757604408992        1.45589230541742
H            2.09019161892623       -0.77916490562346        1.57690959989832
H            0.97214104949069       -0.42233682037364        0.26734385598899
H            2.07292800003445        2.37952662175761       -0.48066804918154
H            1.67991473972239        1.09613561846470       -1.63240636410349
H            3.28549591939352        1.81553874270608       -1.63448724066481
H            3.72975708074413        1.85277844995403        1.46714794036016
H            4.91356118177413        1.29776986931619        0.28093106908808
H            4.41105465765571        0.22665766594017        1.58105145049815
H            4.67039898790414       -2.53361219602637       -1.96299131133186
H            6.48621285868787       -0.44828561469694       -3.00515695234822
H            8.38046587173261       -1.86352778154351       -2.38602739532113
H            7.32600543402040       -3.20425513041576       -2.02918863225992
H            6.94661142169156       -3.66453874513161        0.18321721861809
H            6.59349605745976       -2.99148713996883        2.52303091786611
H            6.46815587147266        0.83354261456418        5.51843307998055
H            6.21479432425542        2.64815767880532        7.19648745590045
H            6.34740099322024        4.99046336949004        6.39633541450834
H            6.71470713035957        5.41285792190656        4.01033164809495
H            7.57294777895721        0.39611552098359       -0.97011157918131
H            4.48284719074402       -1.37819252426214       -4.39727924253102
