71
 energy: -14.106916405823 gnorm: 0.000541167892 xtb: 6.6.1 (8d0f1dd)
C            1.08325095429869        0.22865084219275        0.77745641986573
C            2.59036141879439       -0.04258820148588        0.86823269340512
C            2.85574715770713       -1.09808330890846        1.94711982053076
C            3.10511605670384       -0.51492054878139       -0.49660613466496
O            3.23240051125630        1.20654648952637        1.23237296535293
C            4.59628638805835        1.12970229212321        1.32917100011288
O            5.24436303364306        0.10840698211489        1.17293536520663
N            5.23786044953528        2.32280168193150        1.61080304143648
C            6.67955384627171        2.41636603692955        1.72935630274807
C            7.32741929270869        2.77760912035492        0.39450409277016
C            6.98988054561727        1.81314289370316       -0.69919372257955
C            5.93989669489081        2.07004040589219       -1.56658509459026
C            5.58797232614056        1.15552589364147       -2.53679660790643
C            6.27690137524621       -0.03370505993597       -2.64553895451547
C            7.31664493183969       -0.30591021062640       -1.78191293063116
C            7.66948633006692        0.61139178816792       -0.81446400285936
C            7.02007959358528        3.44800210716778        2.77836466956849
O            6.25958498890288        4.37489104679072        2.95112764017938
O            8.19995921404908        3.26527807413704        3.43147192145266
C            8.38377358168246        4.31012200361593        4.35905058671650
C            9.75928677894173        4.35033591651892        4.95372461229610
C           10.66921203739771        3.39395169768676        4.60555791971649
C           11.96046259006707        3.39747331692765        5.11925664105901
C           12.38383199277711        4.36934919900717        6.00574440794046
C           13.74465725033525        4.38450974556525        6.54759413484723
C           14.68334887175083        3.42622701349777        6.20734035467296
C           15.97427697657872        3.44947416158457        6.72617936002918
C           16.35301428464597        4.42870532086839        7.59447308778365
C           15.44191683998253        5.43210697829004        7.98041740674575
C           15.81693855222189        6.44965709268060        8.88033515228991
C           14.92307037651621        7.41016107432900        9.24719672257100
C           13.62814342468724        7.40110025562029        8.73798458019056
C           13.20158721857342        6.42967823516996        7.84926883087517
C           11.84104624563936        6.41293755379982        7.30619818847479
C           10.90676662476947        7.37305904813603        7.64955852129810
C            9.61702993558448        7.35332252431992        7.13161859788905
C            9.23640984831878        6.37790503636041        6.26093137149863
C           10.14057996498900        5.36980501688213        5.86667637085657
C           11.45900084244337        5.38293063063569        6.39483815544571
C           14.12416247473046        5.41593137960394        7.45617118034969
H            0.53530260412144       -0.67060244537973        0.49948665724943
H            0.88319817566625        0.99920043669340        0.03516907074423
H            0.70525743921997        0.58295486406737        1.73466218190462
H            2.35850237447315       -2.03770367225662        1.71102638830591
H            2.49807408048274       -0.74892149181692        2.91393686287293
H            3.92439387204154       -1.28577464819128        2.03492489909602
H            2.60995111748019       -1.43272306081319       -0.80997250283210
H            4.17680116994096       -0.70029298958324       -0.45181234059553
H            2.93016293073536        0.24897786831527       -1.25183637917191
H            4.72618667414663        3.15962149964826        1.90026949713275
H            7.03682609827777        1.43276879931923        2.06600973012111
H            8.41399376890856        2.84240419431711        0.51343674921885
H            6.99703186995584        3.78156578791251        0.11103951308298
H            5.38485665705601        2.98648051670187       -1.46088508936794
H            4.76808608020325        1.36663289106097       -3.20356464567663
H            5.99779287687792       -0.75253546618936       -3.39846484802883
H            7.84795108318123       -1.24058654020588       -1.85547436841373
H            8.46504383068299        0.39116790293780       -0.12335907768844
H            7.62595014360211        4.18214443392163        5.14113550605273
H            8.16875834221621        5.24880440514266        3.83333478948775
H           10.36350571859213        2.62849767951555        3.91292325861368
H           12.63511899560558        2.62164165268822        4.80869639845260
H           14.42224758809532        2.63762348389662        5.52638233435968
H           16.67824581380869        2.68586961885058        6.43826451746745
H           17.35147770612731        4.44552987155154        7.99596085983638
H           16.81833964100437        6.45720561668660        9.27472813906727
H           15.21932523588356        8.18310118975234        9.93741228978146
H           12.95225134234274        8.17437795178184        9.05254706836846
H           11.17047173352398        8.15997471981299        8.33149170507689
H            8.91401688203982        8.11696732031451        7.42216048156759
H            8.23525633174849        6.37276608345694        5.86768568550099
