58
 energy: -11.460267409895 gnorm: 0.000710803666 xtb: 6.6.1 (8d0f1dd)
C            1.36849377286010        0.27730617191685        0.54630648261176
C            2.80978578962215       -0.23194279858061        0.41647840965375
C            2.85199458763083       -1.39791099762634       -0.57770178919453
C            3.71761036012479        0.91396442821504       -0.04513279865428
O            3.22472428182354       -0.68596449303940        1.72984354267414
C            4.50446508674474       -1.17081038760964        1.78053590694070
O            5.25125072033369       -1.25809560745131        0.82074743118344
N            4.93827096317073       -1.56404262310826        3.03392313870169
C            6.30818549930006       -1.93350929785495        3.27201130548940
C            6.71077760637109       -1.58236547825983        4.67471451012837
O            5.85259398338395       -1.42975426455162        5.51562247987381
O            8.04893703652005       -1.47571252676456        4.90131316040842
C            8.27608881326247       -1.07849817307506        6.23378160140828
C            9.67834829051753       -1.33740507227778        6.69522312833734
C           10.43179560328307       -0.32369206526810        7.22029414906093
C           11.72264321836765       -0.54944788404128        7.68299222253620
C           12.30057048516024       -1.80408531738803        7.64155975790080
C           13.65565439932741       -2.05152099172887        8.13835023184399
C           14.44239562021964       -1.04212723614287        8.66439650684464
C           15.72589686317228       -1.28815108290603        9.14160159484226
C           16.24892316635862       -2.54546180422972        9.10214945555502
C           15.49811720548053       -3.61475822223602        8.57458748204857
C           16.02632803141990       -4.91999387987559        8.52309185460413
C           15.28803842686157       -5.94319957623880        8.00947808511761
C           14.00314177518508       -5.71451718085708        7.52728406165664
C           13.43074500652183       -4.45495344383405        7.54942170822051
C           12.08066909125623       -4.20339325951642        7.03991100690101
C           11.30337337207890       -5.21119580122740        6.49789740006993
C           10.02469454969724       -4.96444782158655        6.01105786307537
C            9.49777438189437       -3.71040072504617        6.06465909957427
C           10.23075409104933       -2.64119520257243        6.61595472138526
C           11.54258807719204       -2.88307185176466        7.10015574962757
C           14.18913706280513       -3.37282176937586        8.08560705465985
H            0.98931417504965        0.64044604540536       -0.40776730828195
H            1.31934657204840        1.08820637096661        1.27063555677996
H            0.71713550672133       -0.52097302684035        0.89717251821510
H            2.50798630111738       -1.08867824552896       -1.56345437322587
H            2.22244788186004       -2.21467973638292       -0.22984751637757
H            3.86837046892219       -1.77659298431334       -0.67052955348175
H            3.40380935311378        1.30198182447736       -1.01288615522116
H            4.74646190405164        0.56819222427719       -0.12907452504996
H            3.69731750462159        1.72653084325284        0.67869199523717
H            4.40199862365593       -1.33585025383138        3.87638970820010
H            6.94355106142400       -1.40883368352029        2.55260873289963
H            6.42515947541040       -3.00635879526883        3.09741786574836
H            7.56246137793079       -1.61382533768584        6.87298434682628
H            8.02775613923214       -0.01262708746918        6.29652214865167
H           10.01104506188036        0.66572669519442        7.27625803247475
H           12.27128780996449        0.28126284518461        8.08610468989207
H           14.06600193974120       -0.03717346332272        8.71047858722774
H           16.30917688996020       -0.47702503935301        9.54571536512801
H           17.24194357934893       -2.73439436386741        9.47157781641148
H           17.02088264532676       -5.09730316600902        8.89415452742413
H           15.70105795616360       -6.93800820605082        7.97442793651430
H           13.45238204732464       -6.54703775136444        7.13075618571047
H           11.68684235351075       -6.21283621263506        6.43955247103210
H            9.45030256437961       -5.77075732887583        5.58508073225413
H            8.51835358822269       -3.51510593054612        5.66572369993302
