64
 energy: -12.364026658307 gnorm: 0.000624767286 xtb: 6.6.1 (8d0f1dd)
C            0.85771816234884        0.15870270496626        0.06672681886431
C            2.38815870999272        0.14557598906248       -0.04468983414350
C            2.96693785660915       -0.81274360341400        1.00302629948428
C            2.79331938125538       -0.28280040995050       -1.46001887555308
O            2.85085299966859        1.49721601540335        0.21246501419746
C            4.21192982740925        1.64968996327024        0.15444202879823
O            4.99825099659712        0.75022155264697       -0.09137012239092
N            4.67857210870790        2.92836388023971        0.39742295980107
C            6.08922899359413        3.24186852278840        0.30917433385008
C            6.50401249389053        4.36749666800244        1.24423809503008
C            8.00186135309943        4.63871786283892        1.22700300919477
C            8.39278438135905        5.73837585316563        2.17244281984704
O            7.71038492782138        5.97574299430441        3.14559274398426
O            9.55088212924819        6.39017082570470        1.86572974388434
C            9.79789150198690        7.40592543996292        2.81168229282033
C           11.23345218878153        7.83658535927977        2.84829420413866
C           11.56641523783751        9.15495915234906        2.69828717868691
C           12.88926075827379        9.57668571581829        2.76435086635730
C           13.92515503598120        8.69034702659140        2.99136504712986
C           15.31923040161781        9.13032659017871        3.08006278912269
C           15.68325119981036       10.45753501193104        2.93551654484355
C           17.00982229728540       10.86682554215794        3.02837109751838
C           17.99812416795447        9.95995633861914        3.26728457698357
C           17.69102146455834        8.59341547671247        3.42210775245825
C           18.70176020444037        7.64269461758593        3.66779515289924
C           18.38933340597383        6.32466048456643        3.81359659736829
C           17.06804263515044        5.89836235641327        3.72201675167405
C           16.03204772951987        6.78404585004914        3.48288204769210
C           14.63825666606458        6.34440939410786        3.38617978703379
C           14.27937110374084        5.01522383607071        3.52088062263033
C           12.95494229580779        4.60373131241288        3.42438488351626
C           11.96687928616316        5.51261877229048        3.19909691240998
C           12.26168077493470        6.88360943760465        3.06411315788902
C           13.61326869906114        7.30821011783312        3.14712955118469
C           16.34161324447514        8.16749437417310        3.32803841487642
H            0.43899914062883       -0.82961151950514       -0.11732452078664
H            0.43289661236074        0.85444426864131       -0.65439732688871
H            0.55463677337875        0.48363104544817        1.06029214534205
H            2.60127737451586       -1.82759921191323        0.85452120201800
H            2.69300895855784       -0.48751129400868        2.00485614627850
H            4.05365281697907       -0.82548563919696        0.94188367770158
H            2.42799731048383       -1.28247667298334       -1.68987904973775
H            3.87746471196877       -0.28100037425249       -1.55750433235125
H            2.39106757883776        0.41179325864066       -2.19500944587412
H            4.03068053094672        3.70149509757060        0.54697738644111
H            6.33140547311793        3.48729285706358       -0.73047601382131
H            6.64452077431330        2.32625968888984        0.54233138547711
H            6.19156847487749        4.12912462490438        2.26779952516517
H            5.96062794340476        5.28459900444597        0.98991416206907
H            8.32910276640654        4.90636144143839        0.21784374753278
H            8.55224247476719        3.73156671765893        1.49372584579130
H            9.49285559121725        7.03321924010525        3.79769805645014
H            9.13638961919198        8.24441337983535        2.56597326361461
H           10.78519828368598        9.87655718077614        2.53099505919900
H           13.09665832358491       10.62331718161658        2.64061399156600
H           14.93239284382738       11.20188568169637        2.74591955576721
H           17.25559002492045       11.90955236063165        2.91063740818374
H           19.02374335416157       10.27797937066370        3.34013069333674
H           19.72414779122280        7.97135428419850        3.73881635265998
H           19.16974665537359        5.60550739355371        4.00148810364436
H           16.86181390813989        4.85120196347271        3.84320864976717
H           15.03264876419057        4.27060511298175        3.69961406246091
H           12.71096189195072        3.55866615023119        3.52369337970797
H           10.94591861196417        5.18979638165506        3.09983562521102
