106
 energy: -20.667306276711 gnorm: 0.000696749904 xtb: 6.6.1 (8d0f1dd)
C            2.93643173358880       -1.40251807460659        1.37985580196249
C            3.80590454902223       -0.72959658615345        0.30963133567446
C            3.01968880377218        0.41185751252684       -0.34539246009301
C            5.09555445289785       -0.20663214756910        0.95399956314258
O            4.12525386361336       -1.74001083430243       -0.68128408355834
C            4.91890789786047       -1.29550345295845       -1.70598073251518
O            5.31208890747134       -0.14666314234612       -1.81446481126284
N            5.26627865722729       -2.25714799987273       -2.64141557424266
C            6.25378315492445       -2.00313170891488       -3.68209453997309
C            6.02745889712591       -0.68409604067356       -4.38368427060971
N            7.06747652826708       -0.38725763406810       -5.37175712418707
C            8.11214085081245        0.47733712563811       -5.19766576397994
C            8.83194164690032        0.34716908246032       -6.34752276158169
C           10.07639545586750        1.10010926091294       -6.68963555529743
O           10.64368943749768        1.73252280663003       -5.54808361606953
C           11.76766294716430        2.49459046364016       -5.79360358517128
C           12.34437614644215        3.15384395132292       -4.69588048362028
C           13.44754048061278        3.94149187607705       -4.84744477129811
C           14.05427323294630        4.11871058660100       -6.09486249285227
C           15.22597486063009        4.95599502308391       -6.24993981772472
C           15.76280847620048        5.41486351446551       -7.46874393726181
C           16.89179061558690        6.17511999919567       -7.21521063405125
C           17.75753332344026        6.80777561786022       -8.20629707492567
C           19.00258928627558        7.31204589760113       -7.83775073332918
C           19.83579585306298        7.90036741572535       -8.75894477144910
C           19.44043320602799        8.00183042885456      -10.07685435188407
C           18.21069453994513        7.51009441189030      -10.46577079845226
C           17.37738523583731        6.91796125775914       -9.54410224276793
C           17.07718141034230        6.19464951720697       -5.78792556376559
N           16.04993743560988        5.45038470906082       -5.27475144194849
B           15.93352824026032        5.25097387849365       -3.76940911824301
F           14.82241094379278        5.94279774585588       -3.31070378338386
F           15.85487721474509        3.89352334115270       -3.49898545759450
N           17.17244448373161        5.82475239768281       -3.09475507913819
C           17.53203418563008        5.72452454966927       -1.77778121473194
C           16.85296906797934        5.00971496197359       -0.71590003343328
C           15.53014281279384        4.57926794837158       -0.86015580743633
C           14.89078890532326        3.89671426552802        0.13331623557415
C           15.53680522881824        3.60547168934892        1.34634325173337
O           14.81171069054007        2.91162501038657        2.29422713457241
C           15.50155165770387        2.63676602330153        3.50549666248849
C           14.61789326269241        1.87183437529659        4.47997513855220
C           15.29475827610781        1.56646396483174        5.79762979280802
S           14.13155152886764        0.64773267350201        6.89353435766107
O           13.02832299792309        1.63805073098520        6.98791066785351
O           13.87608936497246       -0.55057773001473        6.05351952136549
O           14.97848393004818        0.46152675965384        8.09466594457356
C           16.86396029898858        4.04489464225767        1.49824720101932
C           17.49831632100252        4.72709890723129        0.49672482569504
C           18.72658525540458        6.46057852317303       -1.65281810318101
C           19.05986092324382        7.00321131962406       -2.88231400839198
C           20.19291010288267        7.87627168360757       -3.17460396607669
C           21.24224992336561        8.03964353979617       -2.27008593058375
C           22.29195093698340        8.88262376877561       -2.55626098652719
C           22.31749648546907        9.58274706748350       -3.74564639997604
C           21.28786229420437        9.43626483961383       -4.65233560332060
C           20.24114059617138        8.59165812507929       -4.36902194052067
C           18.05959216655071        6.57008194700830       -3.82223984709902
N           18.06766317957574        6.80192436003864       -5.13464059823034
C           13.48113667873780        3.45907589439771       -7.19208731024597
C           12.37404377894894        2.66875109382737       -7.04990638013145
N            8.21497330460743       -0.55759857540897       -7.14579048494524
N            7.17460734463284       -0.99297788227832       -6.55404671569734
H            2.65804745230231       -0.69987411888266        2.16368776248785
H            3.47402683231806       -2.23276474525431        1.83381025522170
H            2.02801648518265       -1.80078574429821        0.93204108216919
H            2.72801107967605        1.16235638181262        0.38736007924209
H            2.12184176444373        0.02616683875960       -0.82443336820861
H            3.62468041655716        0.89446406604615       -1.11090599398464
H            4.88091821564107        0.52348874923329        1.73253534936004
H            5.72700800325376        0.26563223106700        0.20357227091652
H            5.65836192004969       -1.02766126388172        1.39359690758321
H            5.01199939548834       -3.23063653599716       -2.47663950213577
H            6.24475673787031       -2.81793101777379       -4.41483448033303
H            7.24771081018854       -2.01198608405838       -3.22114397543628
H            6.02161441176115        0.11461999219208       -3.63987752714796
H            5.05388682601647       -0.66960402553311       -4.87867999518383
H            8.32290143503953        1.10372988780743       -4.34745049917647
H            9.84711600459907        1.87060685752926       -7.43191436283161
H           10.82074381520339        0.41565758279740       -7.10771337727035
H           11.88836696696488        3.02489828626253       -3.73031955356336
H           13.85992124918831        4.45343110557873       -3.99963471306338
H           15.36113799353287        5.20436373681422       -8.44332973332154
H           19.30602249019795        7.22383960920748       -6.81258910757077
H           20.79553375027334        8.28216123043375       -8.45205072649799
H           20.09017418067780        8.46474193972523      -10.80112866294723
H           17.90161731180912        7.59117233377700      -11.49488271952363
H           16.41771184667291        6.54333683936644       -9.85267230525943
H           15.01422649008884        4.80878695740937       -1.77252485074526
H           13.87450622008976        3.56651174729429        0.00945878499083
H           15.81759197039895        3.59056959062789        3.94229338652924
H           16.39904132771126        2.05642384252467        3.26416559775275
H           14.28184419352960        0.93888664389990        4.00908414059534
H           13.69803984042222        2.44358547289443        4.65878265360467
H           15.60057153736246        2.47911638058389        6.30931269950187
H           16.18763177208336        0.95747262885735        5.65552266853808
H           17.39006850852360        3.83947578222415        2.41238569128653
H           18.51829917866030        5.04062124054793        0.62982923908734
H           19.26594894376306        6.61880184231888       -0.73638383648850
H           21.23009932483986        7.49341189590298       -1.34371039380298
H           23.09656997093240        8.99755741776435       -1.84877514765491
H           23.13988409012257       10.24330832068173       -3.96550446702919
H           21.30384578511822        9.98264740507866       -5.58091837144702
H           19.43216826074545        8.47865313232242       -5.06520994786921
H           13.93362336715811        3.56872831941036       -8.16162495602738
H           11.96581755357188        2.17086256979903       -7.91006066612611
