71
 energy: -12.402006049781 gnorm: 0.000426289903 xtb: 6.6.1 (8d0f1dd)
C            1.43291701337041        0.49691524422451       -0.77172734235391
C            2.91202210198580        0.42340333450231       -0.37074791267892
C            3.78433211684360        0.51767159145142       -1.62730388080003
C            3.23766512171079        1.55904962997333        0.60298191626337
O            3.11299474287509       -0.84831303372479        0.29638668746735
C            4.39994415830894       -1.08533983628685        0.71423999043959
O            5.34459148851916       -0.35303157382379        0.48233304859208
C            4.59118189725982       -2.32553983990125        1.50425397668577
C            3.93029334623876       -3.55159709883395        1.35169033848095
C            2.98790154608548       -3.96105292979960        0.34374566355795
C            2.77554545155036       -3.33200030689733       -0.82507727461834
C            1.83398332972543       -3.74481362907292       -1.84646951024336
C            1.82584089272654       -3.09130433892438       -3.08103687121051
C            0.94217952372714       -3.45776719322138       -4.07056671661290
C            0.04375983597523       -4.48279569395758       -3.85179524054683
C            0.03147318587288       -5.13917217752667       -2.63721912233171
C            0.91396876880756       -4.77664202461301       -1.64448926054482
O            4.32747504131114       -4.41290953525750        2.34823074601367
C            5.25200044166080       -3.76884831776730        3.11308866480139
N            5.81019538284795       -4.41700008346616        4.21992885598504
C            7.18198226942140       -4.28582533624459        4.75501058362545
C            8.22594399420275       -4.23443704958388        3.62212916627307
C            9.65165109766666       -4.08110933943002        4.17855349766876
C            9.74970648907559       -2.83829116403408        5.08156368706306
C            8.73789639022176       -2.91920678113390        6.24036543089420
C            7.30206330903456       -3.08243422019313        5.70947354253448
C            5.44953248699561       -2.46198603893043        2.61345391425883
C            6.27546128195215       -1.34964470022887        3.15515755764277
O            7.48543244445471       -1.46233855801346        3.24991746041740
O            5.57364654491719       -0.21882496225392        3.51235562771199
C            6.39971825044026        0.95610961914631        3.70991097524350
C            7.30844956420494        0.77381472907420        4.92847999322816
C            7.22685298328613        1.20442693113176        2.44235939978526
C            5.45852483987922        2.14250251551739        3.95277371042684
H            1.20355282574206        1.43905567030240       -1.26756964618931
H            0.79909995099841        0.40480088289286        0.10830864610368
H            1.18337173042959       -0.31931375423948       -1.44738240746902
H            3.62611784550442        1.46255369708910       -2.14518916117286
H            3.55549610317003       -0.29331826464367       -2.31515863888871
H            4.83746769125442        0.44420670624599       -1.36331915033332
H            3.05396115865050        2.53353764521446        0.15289147321119
H            4.28287946311441        1.50379055673769        0.89793067544464
H            2.63197965065911        1.46995944116660        1.50300552440130
H            2.47044534904262       -4.88024819827057        0.54478001834605
H            3.35412059376078       -2.45126875944029       -1.03360325140352
H            2.52838327617754       -2.29502095008855       -3.25587234610086
H            0.95273863826084       -2.94471296403598       -5.01830704946174
H           -0.64717245707423       -4.76972659782890       -4.62743458679756
H           -0.67240074826791       -5.93704636246701       -2.46522451773464
H            0.88534114571452       -5.28751986878577       -0.69880516119105
H            5.44502407625765       -5.35236178312400        4.37287196398918
H            7.39733986625909       -5.18774921883108        5.35234235336339
H            7.99191099523840       -3.38869922155728        2.96900327167528
H            8.13470653248431       -5.12518456095118        2.98809883113888
H           10.38611183831547       -4.03170784226594        3.36290671045221
H            9.91422874228271       -4.97441661440093        4.75816311360140
H            9.53331499670307       -1.94762662314353        4.47911408234039
H           10.77264178335169       -2.70279198400753        5.45828636453858
H            8.81477638552515       -2.03373902778866        6.88635704685317
H            8.98728639981053       -3.77292357094165        6.88206720116310
H            6.99657241358036       -2.18080206255094        5.17509801078860
H            6.58237855587912       -3.18663016828990        6.53117755801085
H            7.99982958987919       -0.04895443643286        4.76380872529734
H            6.71723426625195        0.54688385505074        5.81377765850080
H            7.89083334258403        1.67362679940770        5.12177921653568
H            7.92020384005545        0.38085602664018        2.28127054867294
H            7.79420766896030        2.13141026417186        2.50883108460442
H            6.57267907730459        1.24644667339963        1.57350602539830
H            4.84384427056056        1.96200095388200        4.83272982560299
H            4.79171134469642        2.27712100741336        3.10402581834383
H            6.01680446372960        3.06536482258290        4.10402286525495
