45
 energy: -9.227652269888 gnorm: 0.000936849391 xtb: 6.6.1 (8d0f1dd)
C            1.72575777359118        1.18657605695290        0.17070473155041
C            3.22996285978241        1.38538940726947        0.39836254164233
C            3.47099210455659        2.75540205730095        1.04195857597330
C            3.76212947926448        0.26019311410437        1.29339573674047
O            3.87577718857577        1.33009987859008       -0.89983101898247
C            5.23210778898776        1.48762050004773       -0.85636828122593
O            5.88691148716368        1.66572439381148        0.14960242621255
N            5.88574378040993        1.42705087855271       -2.12275430156595
C            5.28483318525959        1.23635509215589       -3.35300494061363
C            6.24085156536042        1.22723305206843       -4.32701020042785
C            7.50061058131507        1.41688372321343       -3.70428751388004
C            8.82754337747290        1.48552933992804       -4.21160789155812
C            9.13278824715294        1.36792601376107       -5.59252184736183
C           10.41149096183222        1.43674750268063       -6.03477750340049
C           11.49383179257732        1.62999905474150       -5.12837407837553
C           12.82296562283420        1.70724021034829       -5.55949050719560
C           13.84544942984480        1.89478943783801       -4.65794803017302
C           13.58287814986335        2.01105063670305       -3.30596144504104
C           12.27817860638864        1.94128487925630       -2.82385180124473
C           11.97459398621777        2.05725717511750       -1.42892897224763
C           10.70388161221254        1.98886606013882       -0.97935264185771
C            9.60571711515114        1.79824000779877       -1.87609108501236
C            8.29841017795990        1.72946886475951       -1.41593953803384
C            7.26334227876607        1.54204539134797       -2.32289378952989
C            9.87301731786285        1.67669369827063       -3.27996004584242
C           11.21713618002189        1.74918898363483       -3.74480000692092
H            1.17736248695124        1.20633590680844        1.11223236349766
H            1.54182557267804        0.23067358061294       -0.31741870383078
H            1.33392543502462        1.97068494104437       -0.47537342077808
H            2.96647556400198        2.83417916284969        2.00396934402350
H            3.10511250368957        3.54792287148713        0.39180604313834
H            4.53630660063456        2.91640544831005        1.19695230345172
H            3.26480339186325        0.25904716192920        2.26222950808813
H            4.83168128576850        0.38162632242175        1.45500660148481
H            3.60402140432303       -0.70742547219860        0.82073485966539
H            4.22286871777574        1.11258420568956       -3.48700690653829
H            6.07321103457936        1.09726693147015       -5.38252449677701
H            8.32631650638882        1.22102176754064       -6.28922247251967
H           10.62772799177009        1.34534818600597       -7.08494965592450
H           13.03737273491160        1.61788372764018       -6.61023048560716
H           14.86254482480321        1.95195371458846       -5.00945299370667
H           14.39043350835584        2.15697181874594       -2.60973367419987
H           12.78643851914899        2.20163140260037       -0.73740656250252
H           10.49622509589350        2.07807867556973        0.07284582272883
H            8.06634417095540        1.81626423650858       -0.37103604535276
