16
 energy: -2.500049287676 gnorm: 0.000717279189 xtb: 6.6.1 (8d0f1dd)
C            0.92771250983490        0.03419276064589       -0.07468829495088
C            2.45499380375039        0.00739754132437       -0.08913918967872
C            2.98424181678219       -1.18806965175170        0.69647771529814
C            2.98424089450823        0.00703898049066       -1.51964131020534
N            2.97355960064976        1.21916017472094        0.56433979861614
O            2.17326926973209        2.04813790615923        1.01138672011243
O            4.20047822662190        1.35308402931319        0.63656606959513
H            0.51017981650072       -0.85124162194502       -0.55218493941987
H            0.55939203156322        0.91658014675712       -0.59616166825504
H            0.55939293639391        0.08325315153116        0.94909668053282
H            2.65626374967416       -2.12833910907276        0.25527339840553
H            2.63649552006426       -1.15121169876982        1.72804076680412
H            4.07345207733750       -1.17564740670726        0.71460514910793
H            2.65626239212086       -0.87819703147214       -2.06289530750505
H            4.07345115848973        0.02901026195373       -1.51922166903374
H            2.63649419597617        0.88922156682240       -2.05558391942358
