78
 energy: -14.653713326634 gnorm: 0.000482505037 xtb: 6.6.1 (8d0f1dd)
C            1.54219592456468       -0.30106763258698        0.73819132298606
C            3.02722345979793       -0.19939788288539        0.40085361956488
C            3.44617158524724        1.25522260769549        0.19895082274877
C            3.88249191462170       -0.86516691600607        1.47789358401776
Si           3.36079532777106       -1.11929232914097       -1.24699626786564
C            3.13198133808857       -2.95688034172611       -0.96906077426763
C            2.14298170272156       -0.56671609939449       -2.55814697958575
C            5.05557327433954       -0.84852713890208       -1.74129755364504
C            6.26698688565560       -0.91330006893119       -1.67707567092605
C            7.64549761218888       -1.09313771996701       -1.46004407650145
C            8.10114118786716       -1.91101984235489       -0.42304976143287
C            7.32126674717145       -2.67574145825498        0.57119858415916
O            6.11653402393805       -2.74666552149097        0.67920470022996
C            8.31808029313368       -3.34232518282718        1.42749439288736
C            8.14283285888824       -4.16902944010347        2.52046084231841
C            9.26194252729816       -4.65875882374671        3.16642853681725
C           10.53588352171237       -4.32714532972454        2.72817370595186
C           10.71509891708113       -3.50123095487098        1.63624233861392
C            9.59825267610510       -3.00583486266342        0.97997578663308
C            9.46905260142265       -2.11553536468713       -0.17490543827105
C           10.45718344468412       -1.51041675594259       -0.96287628060638
C           11.83446304940404       -1.70649358818845       -0.75418524264087
C           13.04134240881002       -1.80784849126015       -0.66371826135280
Si          14.81041607664918       -1.68511827188646       -0.86110738009500
C           15.31732162913021       -2.47217510110163       -2.48257335751053
C           15.27583693285503        0.12509529030696       -0.97334630020217
C           15.73618567644813       -2.52073075458767        0.59350075663091
C           15.27332560939350       -1.84109928246904        1.88053734859155
C           15.34953903189120       -3.99837532581182        0.59160498215189
C           17.23845040663629       -2.34565166357021        0.38921524360365
C           10.00134186770906       -0.68513271918087       -1.99297577249477
C           10.78415800661256        0.10127927994121       -2.96683981635232
O           11.98947304233494        0.17735732484085       -3.06426209753065
C            9.78921315138650        0.79005797006883       -3.80746970294717
C            9.96769234362862        1.66027032127323       -4.86548382515324
C            8.85046755512579        2.17884455063777       -5.49170815816442
C            7.57539185688775        1.83364368907030       -5.06754136048720
C            7.39283604985807        0.96539189206588       -4.00937494042806
C            8.50774897914761        0.43986988239808       -3.37368725395379
C            8.63376526285794       -0.47879345276677       -2.24080933856599
H            1.32425036051751        0.19577951022042        1.68382083864072
H            1.23139885756066       -1.34190728806552        0.82653003689017
H            0.93293244643641        0.16808673386698       -0.03417691786910
H            3.29674553729290        1.83420719406426        1.11067543888176
H            2.86489194440061        1.72231584892718       -0.59612555495118
H            4.50006751236941        1.32086026828291       -0.07277957313428
H            3.80386643937504       -0.33315952858832        2.42611527512840
H            4.93251124359700       -0.88513191507913        1.18451409201546
H            3.57090763890958       -1.89601298634981        1.64420122745753
H            2.17132650355879       -3.16680973505875       -0.50834063426075
H            3.92579578840048       -3.32375316418271       -0.32372680983930
H            3.18874308330174       -3.48202666755579       -1.91805857780307
H            1.12882369938940       -0.82845063586817       -2.27059731779414
H            2.37446389527875       -1.05548696079408       -3.50023326031872
H            2.20291913653703        0.50836587335037       -2.70036635623973
H            7.14780854551156       -4.41370904087313        2.84829777921586
H            9.14280876548396       -5.30409371687124        4.02121959925330
H           11.39647065850348       -4.71719827721024        3.24638691529826
H           11.69845910647495       -3.23711428302467        1.29175492238083
H           14.78288318055779       -1.98863433721509       -3.29546214120716
H           15.06950021626847       -3.52944099310679       -2.48611192284654
H           16.38438581564765       -2.35776553267932       -2.64916693867797
H           14.68878446409557        0.59156407940823       -1.75986115352498
H           16.33024461154482        0.23931736443339       -1.20715041447122
H           15.06292122613601        0.63201659072560       -0.03699125799002
H           14.19140865492983       -1.91715872771500        1.99226973438362
H           15.53695792833727       -0.78354853420322        1.88120225753787
H           15.73601643514012       -2.30306039337373        2.75307526812457
H           14.26879230019711       -4.11690407332003        0.67351162988848
H           15.81103184285712       -4.52307845811078        1.42857301296924
H           15.67161154718636       -4.48581328503905       -0.32854133333992
H           17.50846252594548       -1.29010381636501        0.36039914587042
H           17.56155464650721       -2.80158672481050       -0.54651273766828
H           17.79740641562851       -2.81290402054624        1.20031374446632
H           10.96396372921912        1.91761200653915       -5.17966249957376
H            8.97170298180905        2.85938781509830       -6.31842020082813
H            6.71647540415122        2.24813035205311       -5.56924443191313
H            6.40810814951262        0.69434496791385       -3.67373183785537
