60
 energy: -9.768322024434 gnorm: 0.000569373123 xtb: 6.6.1 (8d0f1dd)
C            0.94534296495147        0.27983605902829        0.50801817432423
C            2.46232731146196        0.28758376168615        0.67678288020987
C            3.15729096999566        0.66888111812271       -0.62883395646772
C            2.88052504915301        1.23461905897024        1.79888180454584
Si           3.01940833231391       -1.49091921762779        1.13383423131450
C            2.15472181988700       -2.10793287994318        2.68517167528150
C            2.48286549067929       -2.66899703255593       -0.22413267695725
C            4.88298986715180       -1.53286057853349        1.28205024751647
C            5.54958562704417       -1.90229340500154        0.15538086385169
C            6.95000843398132       -1.92403867067330        0.11389610147149
C            7.69539869030184       -1.57468897933714        1.19670116642252
Si           9.56520036533376       -1.53843424340886        1.05577221971086
C           10.17009328597749        0.14339603307840        1.64102418229409
C           10.24813549876040       -2.85817304544771        2.19999423064451
C           10.30757363640775       -1.83932556370615       -0.69961324163780
C           10.01460669668386       -3.27327910642580       -1.14188793180637
C            9.72059901877175       -0.82133342783022       -1.67792398225989
C           11.82005205264815       -1.63753576960701       -0.58507390006339
C            7.03917082257648       -1.20172026964313        2.40162576228023
C            7.75035189672019       -0.86185736540074        3.57917505015961
C            7.10354701965445       -0.48308534942279        4.71511537155861
C            5.70737528726881       -0.41959513274686        4.74213073798455
C            4.98612147916275       -0.75044972355678        3.63676872695979
C            5.61762117758261       -1.16380826894413        2.43925625485730
H            0.57721445976390        1.27383148541172        0.25007051915812
H            0.45201290406236       -0.03301850412953        1.42911591350990
H            0.64348508662216       -0.40579449899945       -0.28447744339000
H            2.89090217407064        1.68284366729101       -0.93031901017939
H            2.87336685364021       -0.00534381895081       -1.43711640066354
H            4.24161674101821        0.62490062720437       -0.51862143656348
H            2.60503274080187        2.26309486600081        1.56240839012809
H            3.95993762160768        1.20454346872459        1.95057940649372
H            2.39713535441493        0.96858167381068        2.73902876033863
H            1.23802711841271       -2.62132680516296        2.40701718878217
H            1.89337283620760       -1.29367661525540        3.35507195366243
H            2.79460401290260       -2.81042554059699        3.21283467896201
H            1.40110972865662       -2.77226155952168       -0.21929263932349
H            2.92316279660238       -3.64721380148423       -0.04976006199385
H            2.79007306182311       -2.31724702738950       -1.20469007932776
H            4.99193271761311       -2.16955978361252       -0.72632090925215
H            7.43451856962068       -2.22512793109800       -0.79562861579031
H            9.37646928244064        0.68761649436875        2.14594825552501
H           10.50289399167648        0.74702006238697        0.80138922496252
H           11.00308756854310        0.02127410518388        2.32889686189253
H            9.86467394889633       -2.74580839506966        3.20951967735486
H           11.33234326589877       -2.80005507458010        2.23702160624382
H            9.96299200134011       -3.84196150309243        1.83781008235203
H            8.94708162758327       -3.48280852899584       -1.16871869384125
H           10.47468205999987       -3.99127077243073       -0.46271368308263
H           10.41454878535729       -3.45912167158999       -2.13946634715233
H            8.63972506939437       -0.91499586502398       -1.76349840187232
H           10.14409257410226       -0.95412511683177       -2.67416941836964
H            9.93752901385981        0.19797253212755       -1.35877134848318
H           12.25707181163943       -2.33935117791105        0.12562724381618
H           12.06075997884630       -0.62826091294220       -0.25070289750537
H           12.30633356619249       -1.79339854335373       -1.54913686989101
H            8.82370424124152       -0.90756907705433        3.57426620322300
H            7.66657216118772       -0.22726796768380        5.59829109790696
H            5.20358248441077       -0.10592159504538        5.64223196104762
H            3.91536899508755       -0.68572489569518        3.66552123911428
