39
 energy: -6.760803217994 gnorm: 0.000762393307 xtb: 6.6.1 (8d0f1dd)
C            0.80984214316295       -0.37937273095507       -0.21374090629909
C            2.32593064951512       -0.23344819100111       -0.31196579039860
C            2.87633057173029       -1.01537575708190       -1.50240564332161
C            2.72286920259024        1.23676105147636       -0.41288772636026
Si           3.09477697821079       -0.98571113538398        1.27844250666022
C            2.49314404506775       -0.10838243412473        2.82854306281943
C            2.50688389201329       -2.75794467806195        1.45615290384988
C            4.95929065077159       -0.97154470922741        1.14928270485093
C            5.53419035811349       -2.13041546343930        0.71963671781804
C            6.92388516064051       -2.24570679961336        0.57592761007623
C            7.73158008792464       -1.18922972964915        0.86099439204736
C            7.18143375279661        0.03700491330490        1.29836067118752
C            8.00231867563096        1.15113357729051        1.58982653596960
C            7.45746061583081        2.32963948251335        1.99900016949708
C            6.07011055197076        2.45468944815588        2.13616551422396
C            5.25246434617950        1.39936710459829        1.86749197806852
C            5.77513813545325        0.15421732549929        1.44335202752660
H            0.31981478746234        0.04555537608324       -1.09078350840881
H            0.42549033035912        0.13323210601714        0.66872845593323
H            0.52132768342737       -1.42867860507225       -0.14487166462148
H            2.48277465784328       -0.62382190711759       -2.44116270581859
H            2.60626452110500       -2.06975460808184       -1.43981218213489
H            3.96439558253855       -0.94886687310242       -1.54021442850881
H            2.30852222423708        1.68927841993638       -1.31483968838803
H            3.80705027634003        1.34507180005700       -0.45468804491201
H            2.35537489167058        1.80376638704558        0.44208507721729
H            1.64400777284029       -0.64506690118608        3.24258706278311
H            2.17803433138860        0.90920668555751        2.61701377236864
H            3.28225677748158       -0.08664272874572        3.57543637933071
H            1.45025174657101       -2.77588757856164        1.70825708423886
H            3.05873431462845       -3.24853830256938        2.25336369796878
H            2.65070979571637       -3.31663194401896        0.53589214473086
H            4.90916790710021       -2.97419456076146        0.48022780605931
H            7.35033889049268       -3.17691889991639        0.23914746054738
H            8.79944503002392       -1.27442244726505        0.75337908213369
H            9.06900462499218        1.05298130253944        1.48233174655663
H            8.09355232262997        3.17218575538039        2.21688711362998
H            5.64952986550751        3.39481457629649        2.45482020888533
H            4.18985184800266        1.51222167318460        1.96976840219315
