90
 energy: -16.761985714415 gnorm: 0.000548538314 xtb: 6.6.1 (8d0f1dd)
C            1.14483735998128       -5.63641238840884        6.90663671628795
C            2.33511628111851       -5.63518856402515        5.93026695232206
C            2.48978324535639       -7.01934393108615        5.27542191461536
C            2.02816304863394       -4.61366668889097        4.82131742574052
C            3.62196165494864       -5.29928892850448        6.68934293506975
C            4.63115107746224       -4.35241951396249        6.36940113456675
C            4.67624670649758       -3.47214205664405        5.19990749408334
C            5.58643609842917       -3.50580394275546        4.18807859835370
C            6.71005410305987       -4.39746917725556        4.06065611846693
N            7.20304083528053       -5.11379739460785        5.13514399235429
C            8.35011105703142       -5.73992323294770        4.79702006656662
C            8.62836814246334       -5.48524549910876        3.44032890391042
C            9.83649830922101       -6.02224463546248        2.89750880138897
C           10.72124414358587       -6.71356241791706        3.68665945592321
C           10.47138892944754       -6.92530468615093        5.07873335575035
C           11.16076154113904       -7.47793700485196        6.18868715238624
C           12.52633131761639       -8.17212029789385        6.21485606771832
C           13.53905476449303       -7.29630863400658        6.97396761195252
C           12.39200979767830       -9.55165951324030        6.88880988622640
C           13.07437311394128       -8.40468869617342        4.79595483232760
C           10.31467221961639       -7.26064361976576        7.31065995841922
C           10.57818927870226       -7.53277817486583        8.69945836492121
C            9.65608041792205       -7.50246077420962        9.69844371662799
C            8.22671721274461       -7.24497582617329        9.55322406366906
N            7.70127573896440       -6.10275146626678        8.96566030330244
C            6.35487677184781       -6.25476892871559        8.81226620553208
C            5.97331568437024       -7.50386094271403        9.36958820005220
C            4.62626748037839       -7.95088377987492        9.19673491264469
C            3.75318742278493       -7.26196733523886        8.40133043530797
C            4.15746084425116       -6.06310361406282        7.74806928931932
C            5.43948823761889       -5.51044164205157        8.01577413318886
N            5.68087453338354       -4.44812806845524        7.23477600019148
C            7.15952471892143       -8.11487126312408        9.86545016546920
C            7.34258254530612       -9.50327299984829       10.49376683663322
C            6.03238022696379      -10.30594747141563       10.53493604865776
C            8.35919114778055      -10.31645638032508        9.66909837144254
C            7.84235266463488       -9.34514884960470       11.94091827165570
N            9.16089943043293       -6.65928452010627        6.93323654299153
C            9.25125797269017       -6.44765051653587        5.61924946831680
C            7.57532470571686       -4.64984451512438        2.96181757576817
C            7.46069365059949       -4.21408936591234        1.49527620787679
C            6.19820676267363       -3.38226599036911        1.20934255691355
C            8.68470390631467       -3.36137881492734        1.11669036230248
C            7.39452277703975       -5.47280245562359        0.60927063342484
H            0.21518770023977       -5.86477362911250        6.38573302557047
H            1.03544574229624       -4.65990806427810        7.37776065931427
H            1.26974101260693       -6.37262063805690        7.69692711103708
H            3.33479178313371       -7.02375663127797        4.58703958120587
H            1.59529380297448       -7.28914209744509        4.71456253005692
H            2.66480012908743       -7.79481738450724        6.01876927687906
H            1.10300269741177       -4.87007758774225        4.30533411119668
H            2.82184030456933       -4.59364128992285        4.07549808970163
H            1.90689639901325       -3.61352569533840        5.23538162766183
H            3.89444544987919       -2.73039013450628        5.13248958255161
H            5.46832820792189       -2.76752346846186        3.41795481657468
H            6.87110792104130       -5.12119254358786        6.09464396616115
H           10.06495699760948       -5.86623106964107        1.85954857037261
H           11.62484637919420       -7.08807946455214        3.24553160955230
H           13.23413107620161       -7.11932926197659        8.00265057064344
H           13.64253476594113       -6.32540331613137        6.48996023050302
H           14.52134917465091       -7.76781815499160        6.99499407415088
H           12.05830169241943       -9.47283066449545        7.92068026984502
H           13.34631985499103      -10.07787133694091        6.89141320513052
H           11.66967208988702      -10.16854080624498        6.35467165779679
H           13.30339076839285       -7.45894817296203        4.30706562284923
H           12.36051882179051       -8.95960729997492        4.18775255056090
H           13.99866866497621       -8.98151975331856        4.82890035873573
H           11.58817196945384       -7.78295497021965        8.96708525557162
H           10.00165727993296       -7.75019462646011       10.68977453034842
H            8.26398714063436       -5.38904056093156        8.49003970965548
H            4.29396014105226       -8.85883347162166        9.66119743751911
H            2.76620756604613       -7.65226662401810        8.23494828240609
H            5.63353366071372      -10.45248988346010        9.53164756962728
H            5.28828119794210       -9.80636575494923       11.15408933623843
H            6.19954796333418      -11.29336496012022       10.96547114827519
H            8.04501490138768      -10.38005872881419        8.62754628736604
H            8.45349067086723      -11.33069004083501       10.05649862307638
H            9.34880833195032       -9.86513443276756        9.69199017165851
H            7.13180187464499       -8.76641787453758       12.53070222090290
H            8.80126858013231       -8.83370050215849       11.98157506881441
H            7.96457452719889      -10.31688188479979       12.41899418777415
H            6.25728365331504       -2.40387945585062        1.68385583141158
H            5.30088392358365       -3.89890794013901        1.54935801301436
H            6.08914358536588       -3.20707117779908        0.13892101671882
H            8.73922726308190       -2.47072303393491        1.74228152393191
H            8.62863423030048       -3.04006125069667        0.07680786257518
H            9.61419948155751       -3.91161942856204        1.24460444063139
H            6.52385466037994       -6.07554603596490        0.86702058310570
H            8.27657315895880       -6.09774961054476        0.73105002182140
H            7.31936492290476       -5.20574476609811       -0.44462026109989
