110
 energy: -21.222643808582 gnorm: 0.000430409742 xtb: 6.6.1 (8d0f1dd)
C            0.76072707354075        0.21636730047289       -1.26780346090123
C            2.29815923729217        0.26056852423481       -1.20003753945718
C            2.79508677685334       -1.04991394027018       -0.55886276732279
C            2.87879708644272        0.35423003986855       -2.62322919264505
C            2.73507984319731        1.49133833379132       -0.39067534348403
C            3.47123205747180        1.38584758654168        0.77421222583302
C            3.86389376172474        2.51703302153361        1.49343434725405
C            4.66545490513812        2.38343667207783        2.74093020650870
C            6.08489371498940        2.42509708274858        2.68756083121699
C            6.74752674352383        2.60677997507040        1.46090570806243
C            8.11271886901710        2.64114647081044        1.39867493365625
C            8.86980998858412        2.49382621006196        2.54930453224101
C            8.27579950007071        2.30832823197554        3.79454087911856
C            9.06249091590513        2.14061195264662        5.00982426779113
C           10.45386685600160        2.14010595893375        4.99000649101452
C           11.19406449115485        1.96100722739390        6.14609684684754
C           10.56672979136371        1.78700208368645        7.34795307739242
C            9.16284514890166        1.79350039261937        7.44367173783048
C            8.51693912153476        1.60671281905071        8.69778881956171
C            9.31671335786308        1.41805298489714        9.93276056934616
C            9.21545939979272        0.24073472800265       10.67767394051295
C            9.95186157384578        0.04387760083738       11.82939488031085
C            9.80066795153649       -1.27247098197919       12.60705113088538
C            8.33015949190774       -1.44739089510702       13.03020714070282
C           10.22363475184117       -2.44566483468935       11.70401539300407
C           10.67664587912145       -1.29253606782168       13.87459940232321
C           10.81485974255135        1.05612041789983       12.23366574030710
C           10.95137290045529        2.24324164057235       11.52367963374812
C           11.92805352514502        3.31853650786342       12.02389411371257
C           11.50474992389234        3.77482056895018       13.43203928454607
C           13.35035463804966        2.73036373977635       12.07347645656267
C           11.94470644666424        4.55007037879782       11.09723627644349
C           10.19338115275980        2.40959164084162       10.37996766617679
C            7.09521426572492        1.59602085780560        8.75460895587912
C            6.42470444007899        1.45868955928452        9.98406458109612
C            5.05935017660683        1.45455266454596       10.04763760175955
C            4.30486631118572        1.58857666912595        8.89452488839295
C            4.90303204769093        1.73826317515983        7.64702942143040
C            4.11641593700162        1.88181913912821        6.42848197220193
C            2.72476943675822        1.85055982620854        6.43917415503655
C            1.98669403661845        1.99075879944106        5.27533200106249
C            2.61637210465311        2.16379090358893        4.07429513210522
C            4.01949172076871        2.20185346424900        3.99364546522471
C            4.78557911891804        2.05783676154853        5.18643914293588
C            6.20639700649101        2.08973761792965        5.12699441808210
C            6.85677379787131        2.27515755334642        3.87569702222279
C            6.97460444262515        1.93500394191493        6.31485923962907
C            8.39548781219951        1.96075070107556        6.25370067750845
C            6.32345413455633        1.75398441830150        7.56638887606395
C            3.49363000063328        3.77406581620584        1.01096631726378
C            2.75446312956431        3.91529301024039       -0.14726017689966
C            2.37202995887830        5.32151530459787       -0.63338737704702
C            1.53506738469254        6.02402027150602        0.45174766252424
C            3.65407952907152        6.13006750990241       -0.90470855597219
C            1.54282557860228        5.27312150261762       -1.93128491216613
C            2.38637200089137        2.76248282215350       -0.83225496013047
H            0.41972103163007       -0.65971737323633       -1.81923037447966
H            0.35978210099995        1.09925226475467       -1.76427517155667
H            0.33318047116183        0.17246555313124       -0.26624753849676
H            2.48048929148650       -1.91190879573883       -1.14706447243587
H            2.39194675890522       -1.17286280202565        0.44615376509772
H            3.88321315669718       -1.07041374679548       -0.50097294263513
H            2.60442812418234       -0.51919481895410       -3.21461668609880
H            3.96666541061671        0.41229557455180       -2.59160528716601
H            2.51174141219898        1.23729524948560       -3.14485822466999
H            3.76266254688650        0.42371629708853        1.15265143980220
H            6.16361109317653        2.71827554128276        0.56394935377541
H            8.60323963187731        2.78165589997582        0.44887966486110
H            9.94035425899554        2.52569435630046        2.46445250748721
H           10.97834821158684        2.27242642995729        4.06169969915708
H           12.27116392308458        1.95573927837504        6.09715960517155
H           11.15246111049331        1.63155276549658        8.23640037841201
H            8.55159459380624       -0.52925937989672       10.32828274144452
H            7.67090465639692       -1.49859076643458       12.16451067297416
H            8.00569694744543       -0.61069714048736       13.64862089762250
H            8.19599445463243       -2.36385886299234       13.60462492578235
H            9.59704386210068       -2.50690865749736       10.81499691460603
H           10.14411432774312       -3.39477191222322       12.23384181542403
H           11.25652035481467       -2.32659022142380       11.37725487230475
H           10.40620579203403       -0.48204659921152       14.55121532615163
H           11.73303591584465       -1.19769534347757       13.62392390150506
H           10.55063694776650       -2.22990791642568       14.41640368544318
H           11.40036603445604        0.92423570204740       13.12386354369689
H           11.52888469167276        2.94813266559319       14.14110141378923
H           10.49073401046079        4.17410309844964       13.41808110004430
H           12.16930653577836        4.55361326519617       13.80579749178479
H           13.40759367141670        1.88644584216561       12.75993834275454
H           14.07035927815516        3.47830118022128       12.40519034163618
H           13.65646658214436        2.38102036311503       11.08749820586668
H           10.96134541178364        5.01720809161070       11.04698699510478
H           12.25100559028974        4.27737453334675       10.08743564292562
H           12.64639550692020        5.29959335111719       11.46300711350944
H           10.25760390549923        3.31857442191896        9.81105373353814
H            7.00037721383375        1.36746973776784       10.88800618687346
H            4.56612711334996        1.34824522150941       11.00052958646179
H            3.23387482334541        1.58335209415726        8.97984630763586
H            2.19824019115025        1.71148147876072        7.36529173333294
H            0.90971212729612        1.96370396534279        5.31806051666786
H            2.03881268380339        2.27443728467831        3.17311979566817
H            3.79812240087620        4.64335875017115        1.56505453616631
H            2.09842670358420        6.13517091844351        1.37744699011871
H            0.63529765940577        5.45090708960548        0.67482400356532
H            1.23013831542437        7.01857055388733        0.12660432744477
H            4.25092161902702        6.24170771722845       -0.00025196956173
H            3.41568462352111        7.12818489989243       -1.27183240403909
H            4.27105770681913        5.63317686615859       -1.65321171032601
H            0.61538094161124        4.71989369323386       -1.78420232715728
H            2.10370370995927        4.80243563565035       -2.73855563416813
H            1.27773034478319        6.27867890049473       -2.25785843007211
H            1.81249322688224        2.84802214273287       -1.73557668005342
