80
 energy: -13.867092574817 gnorm: 0.000150504266 xtb: 6.6.1 (8d0f1dd)
C            0.87334213041958        0.35241815353402        0.02302461681364
C            2.38194352575010        0.05891088732647        0.12025728794248
C            2.99380803149590        0.86697526162860        1.27954764761548
C            2.56576448655200       -1.44097355206655        0.42237755252061
C            3.06675178770397        0.46349977878940       -1.19475907800670
C            3.78146993874157       -0.43670107878705       -1.96726505871491
C            4.41144409582922       -0.04285068795157       -3.14343903609500
C            5.17836098049533       -1.01868531343672       -3.95511016279272
C            4.58995919862429       -2.20593561065657       -4.38787020477155
C            5.29859925043639       -3.10616837429942       -5.14927932541787
C            6.62578346628048       -2.85839813988145       -5.49619139099931
C            7.38859811655682       -3.82878272899460       -6.31861294427911
C            6.90704982975226       -4.23809722540058       -7.55756228290725
C            7.60326893796904       -5.13898439386488       -8.34406738956489
C            7.04112724450287       -5.54124366322027       -9.71649734424275
C            5.64242802977644       -6.15934170249925       -9.53477281825198
C            6.94347485674507       -4.29035298350608      -10.60910971044803
C            7.94008320244885       -6.57456303592275      -10.42311791921645
C            8.80530631199285       -5.63618471179527       -7.85629815674398
C            9.31976749501225       -5.25674368132639       -6.62322458857710
C           10.64857677484169       -5.85929256112977       -6.14037414455565
C           10.50348000644749       -7.38885784304942       -6.03447278093075
C           11.76201261986844       -5.51251290818523       -7.14605509399164
C           11.05509593546718       -5.31289383827253       -4.75802476249598
C            8.59889903101434       -4.34639973012852       -5.86841155262705
C            7.21663681712375       -1.67475267278562       -5.05706713155369
C            6.50430031705777       -0.76904934237681       -4.30560484782371
C            4.30780143424851        1.28521936478526       -3.54351470700105
C            3.59458291621088        2.21163124218571       -2.80310973990618
C            3.49020850412885        3.66223390321736       -3.29951430316716
C            4.90293880192383        4.26201442828761       -3.42411580182136
C            2.79674742437977        3.67829895748201       -4.67434900946475
C            2.67287331283588        4.54111774368773       -2.33267873133268
C            2.98557267737332        1.77940697154359       -1.63161379769024
H            0.35866851648978        0.05430535157017        0.93646999728245
H            0.42800527661458       -0.19321608114077       -0.80875494429575
H            0.68388375086367        1.41374661750867       -0.13327201522419
H            2.54081456761206        0.58897707308997        2.23116921558156
H            2.84410777359106        1.93694105917020        1.13935441122701
H            4.06625552859320        0.68602660744021        1.35056774034085
H            2.06875874133359       -1.71136282719172        1.35412044114406
H            3.62064223949648       -1.69413317910852        0.52724456777636
H            2.13853216929536       -2.05593319277714       -0.36958732367463
H            3.87275171483643       -1.46298954149332       -1.66307835253022
H            3.56497594426605       -2.40525763407966       -4.12547786606164
H            4.83555293772284       -4.01973216578262       -5.48122914323005
H            5.97686129734793       -3.82852401663920       -7.90792186735229
H            4.94818356410746       -5.44723081230711       -9.09014571759642
H            5.68915044115495       -7.03241543491476       -8.88399906314673
H            5.22773986432755       -6.47384470185973      -10.49249379002359
H            6.27500012106767       -3.54669552367879      -10.17658001582430
H            6.56365188386404       -4.54509426866988      -11.59850919462564
H            7.92290903168051       -3.82812902209571      -10.73209881171758
H            8.03229363008195       -7.48477639076471       -9.83061662110905
H            8.93771785532814       -6.17249414477682      -10.59944831365783
H            7.52247351564234       -6.85228515579087      -11.39097730315737
H            9.36225960248344       -6.33930957192264       -8.44638847162656
H           10.26889252868209       -7.83308544794485       -7.00119424812251
H            9.70363191540650       -7.65239946562730       -5.34253387991410
H           11.42564052585533       -7.84449821433834       -5.67379449398214
H           11.55077718001549       -5.92670303716117       -8.13126635669694
H           12.72207010768282       -5.91041849183774       -6.81728556771707
H           11.86252202158194       -4.43237669757696       -7.25156094304003
H           10.30439398409248       -5.55219893147501       -4.00497315540565
H           11.18550655822744       -4.23117080214636       -4.78640325647609
H           11.99890038564623       -5.75012859425089       -4.43187632720825
H            8.95989913502295       -4.02816202310173       -4.90791230653741
H            8.24001050178388       -1.47327496001263       -5.32403613025371
H            6.96824489460672        0.14334896168046       -3.97175106429849
H            4.78730288940913        1.58546724334455       -4.45766353985417
H            5.50668917632803        3.70948606660700       -4.14315870409584
H            5.41815506599875        4.23580893776375       -2.46400615388196
H            4.85824879702641        5.29957977680547       -3.75515309685903
H            3.36470378770796        3.11135999502018       -5.41117304496175
H            2.69137303411222        4.69726956467460       -5.04673193471069
H            1.80169206713616        3.23833428726477       -4.60848623993297
H            3.13342725260390        4.57176544358548       -1.34527311139838
H            1.65380611031328        4.16852048203298       -2.22907451417193
H            2.61210116560874        5.56580109338287       -2.69958963091858
H            2.43241345735225        2.48094085659055       -1.03608314756269
