83
 energy: -15.787927410021 gnorm: 0.000642432648 xtb: 6.6.1 (8d0f1dd)
C            1.14967843780785        0.90581341035938       -0.12386816692720
C            2.67110261633151        0.68266342884208       -0.04074501934763
C            3.37606032232877        1.98183941887817       -0.47727611675778
C            3.07248692913235        0.37839127094716        1.41443721506474
C            3.05962353707657       -0.50712161732518       -0.93319337547301
C            2.51241736722327       -1.75301665381321       -0.68680835937082
C            2.81983147753809       -2.86927397530676       -1.44450294275175
C            2.19630120964058       -4.23597281574338       -1.08388363151016
C            1.29010830227762       -4.13976069565357        0.16213363373144
C            1.32604820829704       -4.74866774111963       -2.24532836181342
C            3.30762137155856       -5.25304383107597       -0.76522186335623
C            3.71954125722889       -2.71607738930492       -2.52014770908008
C            4.05661873681945       -3.87827706268585       -3.37039765697497
N            3.35484236843577       -4.25884116254342       -4.44267118750569
N            3.92802641230177       -5.30307178654164       -4.95540865441677
C            5.00353288949368       -5.59648199072681       -4.21960711302599
C            5.91853978144231       -6.69475113266787       -4.48791795836158
C            5.70157304227324       -7.56417299426429       -5.55344623035745
C            6.57994932074655       -8.58928816010568       -5.80703687365932
C            7.70239997322631       -8.77351126125341       -5.00482843907136
N            8.63214757706471       -9.83331284379987       -5.28055405580176
C           10.03055556129611       -9.69607454566573       -5.40582235808258
C           10.84889482371855       -8.56983667817168       -5.32400183987995
C           12.20153998109023       -8.72096404598275       -5.50767685111507
C           12.75656223979786       -9.97592906244723       -5.77522219126767
C           11.96402816480617      -11.09483647007007       -5.86648907207540
C           10.58695933969386      -10.95649145797310       -5.68296345715152
C            9.49930482682896      -11.90501394052846       -5.72695641488824
C            9.46224986837306      -13.28245729278306       -5.95096633883705
C            8.24661254777478      -13.92236897086600       -5.91920000964133
C            7.06757569458365      -13.21486099423184       -5.66623137348282
C            7.08861889451645      -11.85941341384264       -5.44559415310689
C            8.31299160987784      -11.19280004015389       -5.48019905279173
C            7.91624067909406       -7.90674900115517       -3.93704060551504
C            7.03678882886714       -6.88307597855621       -3.68189042613116
O            5.12046165832018       -4.71289529704851       -3.19269331976196
C            4.30571753898624       -1.46060623830118       -2.78618081262749
C            5.34568698264115       -1.26386214912922       -3.91191393364232
C            6.60694300651072       -2.08793804591096       -3.59824293919737
C            4.76109699775385       -1.68856140160252       -5.27237801856624
C            5.77526345666847        0.21334755986968       -4.04291515738421
C            3.95528988993349       -0.39036530000995       -1.98143826771645
H            0.84709021236009        1.75870893003625        0.48317812636637
H            0.60016812166756        0.03456129474272        0.22997896348024
H            0.84494376467551        1.09831635798177       -1.15221727489816
H            3.08368371045179        2.81338125080400        0.16361641426591
H            3.11234866165695        2.24708070602925       -1.50079194889996
H            4.45928066909665        1.88244886565185       -0.41206058260731
H            2.82772625284702        1.21413704989594        2.06949406356344
H            4.14418704427258        0.19508526553961        1.48729266517221
H            2.55622086463718       -0.50293301307719        1.79264858195638
H            1.82524733965921       -1.84191514525370        0.13262376974642
H            0.45559204861860       -3.46011994841652       -0.00840093645992
H            1.85059117199740       -3.79697783915921        1.03155250693807
H            0.87012687634404       -5.11457892970694        0.40907776588760
H            0.58272192784491       -4.00401173356904       -2.52762509790983
H            0.80064495791132       -5.66093648717719       -1.96437155256514
H            1.92403276581641       -4.97694737803101       -3.12336822734489
H            3.94050519486126       -4.88956827851134        0.04384658990369
H            3.94286993540955       -5.43601197224491       -1.62846589536711
H            2.88458036394298       -6.20979516327394       -0.46037691557250
H            4.83773386649541       -7.41521918643871       -6.17781372811458
H            6.42367238968863       -9.25130398334959       -6.64067407004723
H           10.41364978385663       -7.60590335616889       -5.13000175972361
H           12.84545768261200       -7.85888852649686       -5.44743356950239
H           13.82133038465329      -10.06546473166465       -5.91539775730940
H           12.38136175065530      -12.06359742423111       -6.07752331879083
H           10.37495875976752      -13.81915723768910       -6.14103343744652
H            8.20084410647581      -14.98572652473838       -6.08813101674595
H            6.12845975828373      -13.74294837717371       -5.64223533251185
H            6.18686902851799      -11.31074836591663       -5.24049371247534
H            8.77589830870023       -8.05979303019008       -3.30835887296928
H            7.20013449230521       -6.21023341459148       -2.85759950690957
H            6.38635763834786       -3.15174646550855       -3.55715328074863
H            7.02639772540639       -1.79767784126464       -2.63542973754649
H            7.37115643707127       -1.93725664856770       -4.36008923125650
H            4.58579765890664       -2.76038178591161       -5.31857715222504
H            5.44452612290468       -1.43982399284293       -6.08378525522152
H            3.81472528119444       -1.18263163100314       -5.46066667000691
H            6.25579304511729        0.56843360981101       -3.13166415050433
H            4.92103332406385        0.85326037423937       -4.26283223961760
H            6.49250400865417        0.33518212790752       -4.85432582751312
H            4.39175283279496        0.57031092895765       -2.17087192887479
