92
 energy: -17.433761334252 gnorm: 0.000899024426 xtb: 6.6.1 (8d0f1dd)
C            2.76978095476460        1.66869585967737       -0.13292900383078
C            3.84756884455259        0.60697327939693        0.16085423322840
C            4.28718356296807       -0.01887172981605       -1.17609749865020
C            5.04805441531913        1.30479086030918        0.82642382470362
C            3.32443420736089       -0.49907701151872        1.09057149325777
C            2.00521480247559       -0.48631697650021        1.59635843597373
C            1.50743028604130       -1.47072996023482        2.42085668676473
C            0.09482604788617       -1.50204984720299        3.00317629251235
C            0.19587805381535       -1.45925756478235        4.53818711674943
C           -0.75322270653982       -0.31451590437352        2.51583251421524
C           -0.58648344508123       -2.81740242756950        2.58323925322773
C            2.37036142101704       -2.52539711458235        2.76131210557924
O            2.11951187365082       -3.62805478719489        3.54863851228569
C            3.28260718771607       -4.36437165716196        3.55985370313337
C            4.28294887247953       -3.73951112288904        2.79739138426689
C            3.69370691375601       -2.55345866980605        2.27539899413944
C            4.16247346205564       -1.53464335202910        1.43867900319427
C            5.58063774297131       -4.31252367021466        2.65941299796516
C            5.85601468456357       -5.48512733086301        3.27343224279660
N            4.87887567897334       -6.12769314608320        4.03005135894172
C            4.98416608826293       -7.37014969693335        4.70592222077714
O            5.97303369130722       -8.08865208657148        4.75672541851874
C            3.67762751186953       -7.58144057716019        5.29595950347298
C            2.91293724052989       -8.49246908445395        6.04484171465289
C            3.20869749723544       -9.76319584575064        6.59886571907386
O            4.37232692220472      -10.49858878235221        6.61314705989514
C            4.07532164110404      -11.67452933256767        7.26712650565461
C            4.91197274752667      -12.77058369425514        7.53411943144639
C            6.36713878945801      -12.67454728570508        7.07796543472753
C            7.02747315092893      -11.48245241102050        7.79271505245512
C            7.15327209815294      -13.95801990631799        7.39654510806327
C            6.39645507505780      -12.42589413214765        5.55886098902410
C            4.35622226978575      -13.84228167847390        8.19600315829997
C            3.00606358164499      -13.88079220568272        8.60745475099033
C            2.48104871298234      -15.13736678578300        9.31896034105330
C            0.99849468638491      -14.99286775335460        9.71464169974714
C            2.61627695066667      -16.34675146582112        8.37534363085510
C            3.30210800605670      -15.38220408006849       10.59858796156181
C            2.19688294741042      -12.79695747423881        8.34655013023415
C            2.72582474517108      -11.68777710046161        7.67651635231757
C            2.16966289834399      -10.44934736695436        7.24869220795473
C            0.86496223923773       -9.88756496328727        7.36552150932174
C            0.61810320066590       -8.66959237869038        6.83328498852358
N            1.62864070288132       -7.97400283528392        6.17376040963656
C            1.53115590005791       -6.71737197120447        5.52326976081166
O            0.53636604767535       -6.00843540527754        5.45662017512826
C            2.84900322371478       -6.48733842687985        4.96646488151091
C            3.60375846516581       -5.59441458492774        4.18628847324249
H            3.15939960563053        2.44053131338115       -0.79595503913260
H            2.44114967229418        2.15872907616663        0.78289136852907
H            1.90308608181515        1.22365530499526       -0.62042571066370
H            4.64354001855287        0.74536164248809       -1.86596726829529
H            3.45482428308903       -0.53837995547274       -1.64955370064273
H            5.09168841967662       -0.73832668719916       -1.03181765715630
H            5.43163674708043        2.10657324208973        0.19633179453415
H            5.86238332910705        0.60493713050395        1.00745006388112
H            4.75926552383748        1.73696986792461        1.78387223965439
H            1.35806138197130        0.32564304273698        1.32684977178300
H            0.69830026680212       -0.55080302753654        4.86788187926209
H            0.76571715212179       -2.31245786527087        4.90683870267063
H           -0.79106070244837       -1.48997425360097        4.99786657007286
H           -0.30862628831861        0.63352173902156        2.81631952737497
H           -1.75683577149725       -0.35789450336627        2.93742133816390
H           -0.84847815097280       -0.32182220123267        1.43065104211136
H           -0.02500439598782       -3.67526313846902        2.95443136213210
H           -0.64227024024986       -2.89543875767136        1.49834476696253
H           -1.59764419195291       -2.88069624304728        2.98301862449532
H            5.17172784608568       -1.57604859974567        1.07402654207276
H            6.32129874099456       -3.80565626839174        2.06718654795345
H            6.81868795629423       -5.95744706671542        3.19571195898348
H            7.00111860479155      -11.61615872952798        8.87337299203117
H            6.50333101962386      -10.55685294657633        7.55377277171932
H            8.06679462483121      -11.36811787771373        7.48768633602608
H            7.17232708651190      -14.14901927198694        8.46880883483620
H            8.18503685386173      -13.87352258262631        7.05719326031477
H            6.71049085809199      -14.82064633086165        6.90012752595794
H            5.87830098169517      -11.49875475383210        5.31222853882563
H            5.90549571561277      -13.23780679654696        5.02414992128019
H            7.41951927746407      -12.34539272521111        5.19394814595675
H            4.97447955813046      -14.69371613323670        8.40941820302899
H            0.37074606375706      -14.84453799925150        8.83673024063639
H            0.85373962487922      -14.15164148402750       10.39150510616892
H            0.64502469807993      -15.88941629739318       10.22296922712749
H            2.05721148217081      -16.18035005368425        7.45520741138548
H            2.23287992028163      -17.25228441755755        8.84434251083247
H            3.65615822640243      -16.52528498002200        8.10609251926648
H            3.23841039335323      -14.52389508103380       11.26644482360776
H            4.35322363880877      -15.55115206018369       10.37028598755848
H            2.93460216330802      -16.25590774359111       11.13580368225884
H            1.16437589537932      -12.78188892197391        8.63906549411000
H            0.09516797762116      -10.44099029090250        7.87281560818059
H           -0.35088184085539       -8.20735472878563        6.89081789489328
