63
 energy: -9.180077012742 gnorm: 0.001456550085 xtb: 6.6.1 (8d0f1dd)
C            1.46827526825279        0.77848644217613        0.87008836120758
C            2.84899274973327        0.48886726740347        0.25223123868679
C            3.92690846604961        0.79952636447869        1.25683468682588
C            2.91910129170225       -1.00343785055708       -0.12649730734888
C            3.05399787777998        1.36220181035374       -0.99126574428670
C            3.67359683812962        0.87864506484745       -2.09030988923509
C            3.91408574444753        1.63778803926551       -3.18843838629189
C            3.51373916551594        2.99026074109538       -3.18558916079049
C            2.87335052071203        3.49851319332393       -2.04168340080858
C            2.42413201614930        4.96139646178610       -2.00727517399355
C            3.62170212277389        5.85006957929677       -2.22251666276973
C            1.41531688453422        5.19279356454326       -3.10309999261448
C            1.78205565610615        5.29780165477215       -0.64578896091417
C            2.67749904350469        2.66826551886873       -0.99467138554031
O            3.73657858611753        3.78323129555235       -4.27923864252080
B            4.80386372074832        3.37768926815571       -5.21309416165977
F            4.56375187311639        3.92914527160714       -6.45878994545715
F            6.01481427708965        3.82284701722803       -4.70976138233806
N            4.85461369502479        1.90826769439042       -5.32674605348148
C            4.52858442110779        1.08183856727569       -4.38176169378277
N            4.68748427152402       -0.25821863403046       -4.43993591389708
C            5.25988567042671       -0.80880707528066       -5.49967311281389
C            5.34736358397862       -2.27972962166984       -5.48549474511142
C            4.55792248794184       -2.99691951536667       -4.63346901659665
C            4.62496826395846       -4.31162008149528       -4.57068096545254
C            5.47129015106339       -4.98613534106280       -5.32917233135658
C            6.27225964862734       -4.35552540180585       -6.16903342448838
C            6.24073930909145       -3.01334399007643       -6.27435936882978
C            5.75700240296661       -0.07198627244453       -6.57007731667993
C            6.18410421448201       -0.48634078149755       -7.76005744062492
C            6.70253412498517        0.25298458146217       -8.70977961307832
C            6.99194283685003        1.58171352597611       -8.57387965133219
C            5.10583525812515        7.72891089513714       -4.67276152907160
C            5.45260734119904        6.75952561712152       -5.44180249052242
H            0.62400860566413       -2.20450923065538        1.93428831327471
H            0.67357023634790        0.56214926641484        0.15711460121987
H            1.38322685958187        1.82468587642491        1.16124749653853
H            1.30452993666342        0.16820719699053        1.75723033009028
H            3.89100528363570        1.81865832784916        1.58241185749832
H            4.90379068379441        0.58681386061741        0.87432515941348
H            1.35460849370301       -4.68031662808165        2.28803539014809
H            2.78203729874746       -1.63374409773268        0.75114340802153
H            2.14516081233158       -1.25564396171181       -0.85033134918966
H            3.88396711685086       -1.24774438902697       -0.56930787971342
H            2.96607350686512        5.13860748759422       -5.75570855102271
H            4.40077026191841        5.66341225166036       -1.51246545779476
H            3.36818149256460        6.89019578572598       -2.21968756381128
H            3.19171698973453        2.22362932382310       -6.74212762099901
H            1.07480717471499        6.20709808751968       -3.14002681108521
H            0.57767634868124        4.53025276408201       -3.02929631379772
H            6.27324553733703        3.48298716104226       -2.66055167978518
H            0.91093772160234        4.66993030370397       -0.46248710526565
H            1.46112446514272        6.33828755647817       -0.61172785368369
H            2.49014834860065        5.13659328533930        0.16620037081525
H            5.74446829433586        2.74522253520557       -7.38369750117308
H            2.09173704958814      -10.07314594379912       -2.75165592469865
H            9.48632160207563       -9.44556100588329       -8.54141241462031
H           12.35200404196946       -3.51948781703229       -9.99434933072393
H            7.10839911026356        2.10948468969785       -5.16035531001800
H            6.91761800557791       -2.51705276701271       -6.94594872077161
H            9.01485538348156        3.12710949476147      -13.72487124421941
H            5.10752021239380        8.73389220397701       -4.97914536865489
H            5.45838939585345        5.75406360579147       -5.13331243706881
