116
 energy: -21.579044847401 gnorm: 0.000723868847 xtb: 6.6.1 (8d0f1dd)
C            0.97331119816100        0.23926702327075        0.00744763540031
C            1.89078240666401       -0.73565851727586       -0.75319278264114
C            3.28447305862092       -0.75381990593275       -0.09890449718511
C            1.28817102215732       -2.15005118832821       -0.65078207006719
C            2.02001256314053       -0.27331314414272       -2.21260518022055
C            2.55229113063029        0.97130205688491       -2.48703082788509
C            2.66810981579767        1.44393097143030       -3.79082915340744
C            2.25240509154647        0.62271255485713       -4.86756703393578
C            1.71325518223962       -0.64492204198247       -4.60121976507823
C            1.20779044860512       -1.48954182145703       -5.77619656596998
C            0.02944299722296       -0.75792650635232       -6.44407789489186
C            2.34434167800493       -1.67541720795088       -6.79654768902062
C            0.73568361658032       -2.88246251826069       -5.31970693007204
C            1.60574927260547       -1.06053816555938       -3.28460528070111
O            2.35878257749505        1.06595881963646       -6.16680098209841
B            2.36743147903615        2.53085388372329       -6.40899602625130
C            0.85016617057805        3.05272234650104       -6.43085727002217
C            0.40770983478237        3.78943603755815       -7.50364280004827
C           -0.93261560676779        4.09395822681241       -7.61986523479927
C           -1.81571166225916        3.64983402350959       -6.66492713378071
B           -3.37768551146466        3.76572547872526       -6.99892076825159
O           -3.71333567780560        5.16108083008225       -7.35273806047457
C           -4.34115146478854        5.60985141988029       -6.21602563110517
C           -4.68034173201503        7.01925337146447       -6.06171617751863
C           -4.36513756497066        7.92698009463445       -7.06697213678496
C           -4.67804920195313        9.26035664983795       -6.92720167719823
C           -5.30990703753331        9.70574370372910       -5.78188691253775
C           -5.62900334187823        8.81361991348297       -4.77605776203990
C           -5.31728217082206        7.47986174012878       -4.91335882485797
N           -4.62463759632656        4.72343155123877       -5.28903904430857
N           -4.21061565745988        3.53067919412197       -5.74712664667685
C           -4.57150686027001        2.32835837198254       -5.34813045704315
C           -4.26441025550320        1.20214771617627       -6.16681391985627
C           -4.42143319385887       -0.10089603577898       -5.70164355605976
C           -4.14166842306753       -1.19158686665642       -6.50303266096243
C           -4.31272419840701       -2.63855302982363       -6.01649875953220
C           -5.32869218657126       -3.36233124908349       -6.91907643064753
C           -2.95543208231231       -3.36037854498281       -6.08085091012431
C           -4.82430110576787       -2.69593226419917       -4.56439537477893
C           -3.69773811950033       -0.95465991352830       -7.80059929460031
C           -3.54108972478849        0.31985115168738       -8.31696823744583
C           -3.05229703168414        0.57361506285182       -9.74613139832043
C           -4.11820531557088        1.38540830943625      -10.50178788416501
C           -1.73932877580786        1.37116483087713       -9.69038424996248
C           -2.79641284207765       -0.73764156291861      -10.51237128008068
C           -3.82922285797636        1.42212261255211       -7.49758046704602
O           -3.70132347559801        2.70459789404257       -7.98900689344393
C           -1.36913629518922        2.94375867212126       -5.57359528672546
C           -0.02902333492800        2.65049701955077       -5.45278132743478
O            3.07743432174618        2.99597132143860       -7.62217635004841
C            3.83292854778025        4.03702336841223       -7.14247279377703
C            4.55785173619817        4.90986869815617       -8.05740207600036
C            4.49403532420350        4.68887588397025       -9.42899321772520
C            5.17411360831048        5.50904387739486      -10.30081648468647
C            5.92690970734741        6.56126266881547       -9.81564732204775
C            5.99808794108276        6.79169466509756       -8.45502466663742
C            5.31911587592068        5.97293010212628       -7.58113288954399
N            3.87621234208875        4.20211199541471       -5.84046386340453
N            3.14037561676918        3.21814455833785       -5.29299675267282
C            3.22176445854035        2.72717892549484       -4.07254199799517
H            0.84706427669606       -0.07185607655439        1.04406900693959
H           -0.01226385551190        0.28034773698002       -0.45540164758145
H            1.38334648127649        1.24821419496470        0.01078367412333
H            3.22634503988118       -1.09831500884931        0.93324151743710
H            3.73294602677963        0.23856432449368       -0.09286389917971
H            3.95487174367454       -1.42087076404544       -0.64003213947561
H            1.20941323499132       -2.46119281109378        0.39064612685266
H            1.91140238009387       -2.88049592931950       -1.16590417941413
H            0.28717920955138       -2.18288164924026       -1.08006061154037
H            2.87888140878525        1.60241908592543       -1.68071594235760
H            0.34609241458073        0.21348829366181       -6.82144655209908
H           -0.77951282844108       -0.59231637907124       -5.73310519563822
H           -0.36712339243460       -1.33111048218847       -7.28141576805608
H            2.68809606633520       -0.71289884425160       -7.17303470684579
H            2.01451509595062       -2.27111998445620       -7.64699654323027
H            3.19569220396958       -2.17715821225850       -6.33806055048349
H           -0.08998105698420       -2.80639877055439       -4.61356174702210
H            1.54677629526281       -3.43237740260747       -4.84318404205782
H            0.39100339784242       -3.47130359513725       -6.16934976938850
H            1.18467829532714       -2.02569205735752       -3.08153279574809
H            1.11385101024015        4.08974964237006       -8.25816323477897
H           -1.30743099026260        4.64486545676330       -8.46553546513317
H           -3.87295016319859        7.56482208211674       -7.95323885879936
H           -4.42899280333295        9.95673326341328       -7.71112149823013
H           -5.55314390697685       10.74996488394462       -5.67262001742349
H           -6.12158508417870        9.16220871208466       -3.88308146292733
H           -5.55997691983298        6.77529590636274       -4.13696532988624
H           -5.12932317887504        2.22400816281835       -4.43834625405067
H           -4.76600683194399       -0.24090300861668       -4.69408400187966
H           -4.98512193812171       -3.40102912774363       -7.95183700849090
H           -6.28942046907412       -2.84851416988646       -6.90539110350591
H           -5.48868587548485       -4.38650588770036       -6.58322381361021
H           -2.56373837275938       -3.38390965438945       -7.09685077459725
H           -3.04287871153108       -4.38923973990671       -5.73275600130960
H           -2.22630073371161       -2.85246230965003       -5.45198434578718
H           -5.79347409271206       -2.20695670505258       -4.47049194473003
H           -4.12422944842112       -2.21364526991398       -3.88270238092885
H           -4.94327778214199       -3.72867931850559       -4.23750208606772
H           -3.47500561538978       -1.80121583593213       -8.42183309297691
H           -4.30581361391756        2.33433666757757      -10.00046908186230
H           -5.05974547747867        0.83915811282553      -10.54579171021240
H           -3.80002436349458        1.59921339439958      -11.52155000051574
H           -1.89864564693353        2.32859768935156       -9.19902363524558
H           -1.35343707478045        1.56653516092200      -10.69024025324263
H           -0.97787890658006        0.82918253553534       -9.13073015633753
H           -3.70573347906926       -1.33337334238381      -10.58568488629528
H           -2.02798246491805       -1.33500928566310      -10.02249857571867
H           -2.45533772321598       -0.53070089706202      -11.52637509214896
H           -2.07672410340605        2.59758433960013       -4.84168225304090
H            0.33026958085559        2.07538104088350       -4.61883243581324
H            3.90633550679570        3.86339527001900       -9.79235403661330
H            5.12015458770242        5.32881285047333      -11.36202477614485
H            6.45988012976385        7.20176246388708      -10.49912050291621
H            6.58564924326726        7.61247922895642       -8.07742389895691
H            5.36607132198535        6.14145567540428       -6.51930479877093
H            3.77164323465470        3.26830923048007       -3.32766153926984
