64
 energy: -13.210742938423 gnorm: 0.000723084002 xtb: 6.6.1 (8d0f1dd)
C           -2.44397581784460        2.76183112104130        3.97793194073963
C            4.84951592831303        0.39119194299547       -3.48531325377502
C            6.11699295273886        0.52209787972613       -4.25433092389438
C            3.67171722840582       -0.21351576389566       -4.16564584570451
C            4.76820131545926        0.81821361897058       -2.16945199063670
C            5.89508329110415        1.39532871440836       -1.50602630427707
C            5.83383724065197        1.81718051991183       -0.19620221741361
C            4.60357118012245        1.67991904267653        0.47152313793913
C            3.45350693042948        1.12436266868890       -0.11807161305176
C            3.55497455446587        0.69643049035099       -1.42346442978789
C            2.21277875890002        1.03059213177193        0.66162801218777
C            1.01381244334153        0.63990085687396        0.05978031462823
C           -0.14593058807773        0.51654891055617        0.78676669274743
C           -0.14799915429016        0.79847913927785        2.13923198471722
C            1.00505466894480        1.20964684896216        2.77346305746895
C            2.20593962566710        1.31159507467773        2.04995762180060
N            3.39086677839950        1.66064712211456        2.70971855165610
B            4.51513198880583        2.14773666081121        1.88453676324421
N            5.56334980830337        3.06064086662133        2.38597856550027
C            5.19600550246768        4.03933282452142        3.33425465604526
C            3.85820758572271        4.40133621185052        3.47465365411811
C            3.47269124655712        5.36241243234298        4.37978609766516
C            4.42188883340494        5.98682499487332        5.16605490853867
C            5.75178987905068        5.63972990030815        5.04239298559604
C            6.15006924403867        4.67137313087363        4.13642562497058
S            7.85517038172670        4.24797227050615        4.04912351090394
C            7.94891461024080        3.52085083826287        2.44486680476508
C            9.19123584348891        3.46348823487130        1.84986935547221
C            9.35211487203983        2.87005916429788        0.61246139641005
C            8.26741963573980        2.33243653356915       -0.03808936510815
C            6.98692897365934        2.37750504627064        0.51958813452504
C            6.82738869776983        2.98577484893709        1.78879424959958
C            3.61777992485678        1.41004997225477        4.08016954203606
C            4.91563923332745        1.21495650157715        4.54641149790698
C            5.15861272298871        0.93321796798197        5.87055339578968
C            4.10454656015038        0.84030610705982        6.75916951126241
C            2.81287213152038        1.04071406923945        6.31644007026170
C            2.55791258397291        1.33047083989061        4.98700442806937
S            0.90007569711650        1.63726224302106        4.48538953887835
H           -3.06235657852009        1.90096993202368        4.10539492729060
H           -2.49538953981939        3.09554210355327        2.96505662939203
H           -1.43434633341983        2.51855630343086        4.22429951093446
H            6.01095033974788        0.14014769942557       -5.27028486299661
H            6.92201792472110       -0.03878577036265       -3.77787617331584
H            6.42258404933914        1.56653598903030       -4.32853519760449
H            3.34370378681531       -1.11659839043899       -3.64920827334712
H            3.90283990328076       -0.49239991730075       -5.19426915284298
H            2.83609860424843        0.48693390054647       -4.19699774876971
H            6.80816072424188        1.50987238521028       -2.05593098195445
H            2.70668143815381        0.24726642116271       -1.90058144406130
H            0.98724027419732        0.43451778141558       -0.99467260336560
H           -1.05731653389736        0.20720719922490        0.30175999388387
H           -1.05580931826183        0.70478227123963        2.71074118655130
H            3.12344574461460        3.89607680550391        2.87408583907350
H            2.43161209086356        5.62218961292308        4.47975230162400
H            4.12349071183276        6.73927341218887        5.87741087695774
H            6.49869543209144        6.11573134605725        5.65578701639242
H           10.03884123772352        3.87782629866663        2.37067308865190
H           10.33005131247906        2.82426501315257        0.16187570430499
H            8.41816790864041        1.85669608443373       -0.98992162897210
H            5.73093568059255        1.30876928385063        3.85199565140721
H            6.16956602640393        0.78930738153311        6.21483210271011
H            4.29117360170279        0.61840674344732        7.79697830941050
H            1.98544821952220        0.98315813064367        7.00365486783407
