94
 energy: -18.877114489314 gnorm: 0.000825016825 xtb: 6.6.1 (8d0f1dd)
C            1.47803736401274        0.53851220870643       -0.37610044499262
C            2.91409429093135        0.01530003775123       -0.18514866577267
C            2.94965758242178       -1.47041861288966       -0.59051382624144
C            3.87380150627585        0.79472009105383       -1.10263339955211
C            3.33600795505186        0.21705174642534        1.27800547917152
C            3.71421762590968       -0.83306012263266        2.09933831236900
C            4.09856979839881       -0.62375413614368        3.42927348524617
C            4.49190445121327       -1.69166654180007        4.27679000701912
C            4.88106870317406       -1.49472504154831        5.57638090144036
N            5.20543353786887       -2.62502935146524        6.39523846712104
C            4.73440839329490       -2.71144188448983        7.75018231146534
C            5.54218001935678       -3.24849366763672        8.74945744180732
C            5.11427536471219       -3.27555659688002       10.05789317991244
C            3.87296791001127       -2.76927204618121       10.39173897038577
C            3.05877803480688       -2.23728721076854        9.41056841639904
C            3.48364611684829       -2.20988553177700        8.10127892045224
C            5.90544661441053       -3.74042271359395        5.82334025684283
C            5.59695631500358       -5.04555278454314        6.19799269889866
C            6.26245023189824       -6.11333045206158        5.63872276345603
C            7.24791596130108       -5.89753059740912        4.69486136452715
C            7.56568533703102       -4.60847200025030        4.31289026903915
C            6.90159305290554       -3.53943711644255        4.87142931507376
C            4.93229321459812       -0.14662974667494        6.10033953902543
C            5.40218748123509        0.13872824694934        7.38095345380190
C            5.42361743433430        1.42699395011481        7.90010027657790
C            5.89295264421376        1.71578698449134        9.33422427964988
C            7.08010358850444        2.69460590081927        9.29574570994906
C            4.73112370789848        2.33671303006579       10.13075831662306
C            6.34333066810489        0.43186161269892       10.05898838110952
C            4.98514624517435        2.46668844432448        7.09745015860819
C            4.53564505402171        2.24966270999408        5.79010909809740
C            4.09009628378193        3.31132639437076        4.96068410239000
C            3.64967757550257        3.10578328537273        3.67917901590436
N            3.14758882426843        4.21000908051740        2.91576428515138
C            3.80635343179868        5.48302620673991        2.99449098361088
C            3.07644374358229        6.66870803058234        2.99814458000825
C            3.71445650258275        7.88576871384676        3.08585594265830
C            5.09220423326484        7.94078717554985        3.17125864382988
C            5.83012424283776        6.77286468035425        3.16964803899196
C            5.19396725804390        5.55492930747218        3.08291802675621
C            1.92227924065083        4.08949777198471        2.17561401997590
C            1.76597309238921        4.72721407209758        0.94774495799839
C            0.60745463171836        4.57282991479228        0.21991012005350
C           -0.41487012699995        3.78017060492244        0.70493337008876
C           -0.27459610014684        3.14193064594103        1.92196927630165
C            0.88249342210237        3.29517121720797        2.65180661228965
C            3.67652401008542        1.76822149734503        3.12990042120299
C            3.33337387841311        1.50064553928032        1.80679504910625
C            4.08717398115945        0.69259901050133        3.94810201595284
C            4.51256062177995        0.92800895990377        5.28461263929467
H            1.13960537841890        0.38443717398212       -1.40046212128162
H            1.41157571640902        1.60429689974038       -0.16183075103791
H            0.78761929643277        0.02129673038093        0.28971167832993
H            2.64164630405766       -1.59429674501714       -1.62861169701149
H            2.27401857040723       -2.06202835286165        0.02684012066401
H            3.95518336204018       -1.87919759697697       -0.49339035622964
H            3.61163462175979        0.65350207740226       -2.15103555061900
H            4.90009772841124        0.45596759760217       -0.96267536786116
H            3.84300223506764        1.86333781386407       -0.89334169788672
H            3.72608525920420       -1.83844875568968        1.72174432350796
H            4.46126441348092       -2.69422241840665        3.89239655996526
H            6.51471849029744       -3.62538753735292        8.48456069605970
H            5.75066489764777       -3.68855619413536       10.82359008913383
H            3.54089633523954       -2.78735389976785       11.41710769907656
H            2.09147657079892       -1.83916077912380        9.67061734569072
H            2.85933558449719       -1.79030916039282        7.33180076521931
H            4.82040312341106       -5.20777153709457        6.92503733770657
H            6.01258981253712       -7.11877987108211        5.93633495440008
H            7.76762280937646       -6.73406034470138        4.25664151858612
H            8.33453102525095       -4.43915307874553        3.57659280444221
H            7.14862510188409       -2.53246637234867        4.58318968547187
H            5.75510345975992       -0.67746889966947        7.97862438678619
H            6.79639189185790        3.64479108741917        8.84497052045561
H            7.90156944142347        2.27918429283907        8.71229795317231
H            7.44934799622262        2.89977749157857       10.30047393352157
H            4.40339677942582        3.27606346680429        9.68702048739012
H            5.02752427847794        2.53980403326052       11.15968415339769
H            3.87656622342195        1.66051703267245       10.15276778553977
H            7.17595384664977       -0.04253618481925        9.54021380320131
H            5.52609185545933       -0.28533705326033       10.13031834004397
H            6.67215425025344        0.65611865375340       11.07349545160960
H            4.98938025349432        3.47171313711023        7.47824661842547
H            4.07384430414898        4.30855766733153        5.35959643940122
H            2.00297019687957        6.61860398147151        2.94371042700374
H            3.13781914223181        8.79646726291276        3.08980042329775
H            5.59069549387223        8.89404109622032        3.23995291065381
H            6.90512373460531        6.81483891338054        3.23638838208315
H            5.76235683698974        4.64114382935490        3.07598184709742
H            2.57241772608299        5.33095361692170        0.56945673789647
H            0.49943325440270        5.06906338295051       -0.73076163639025
H           -1.32031808974104        3.65803700822911        0.13307039692755
H           -1.07008788269365        2.52041264111947        2.29955267568898
H            1.00166941974027        2.79697869445671        3.59805198349638
H            3.05497399870253        2.32325828172717        1.17729040390716
