82
 energy: -17.991408947530 gnorm: 0.000616213820 xtb: 6.6.1 (8d0f1dd)
C            1.70740055727872        0.72225536919368       -0.43606470729596
C            2.99878367286218       -0.08275350867284       -0.20151131383270
C            3.17878921957943       -1.06661863996440       -1.37435142969650
C            4.20831338234710        0.86990424618541       -0.17669482267907
C            2.90131251575285       -0.81496989882307        1.14552306273009
C            2.75024884655558       -0.08786172150290        2.31036639994425
C            2.65436750697827       -0.70816984562756        3.56243322550175
C            2.51344355580395        0.03890644719053        4.76855644174789
C            2.41404923100778       -0.58080447014630        5.96625231605949
C            2.43640897191119       -2.00296617362940        6.07945266898648
C            2.32403649969390       -2.66748480009753        7.33230126606080
C            2.10494172745228       -1.92749245157925        8.59471546735904
C            2.91537130807925       -2.16280528461273        9.70895384945949
C            2.70896792293193       -1.48964680285987       10.88607537865023
C            1.67988132483859       -0.55564386265520       11.00639097466314
N            1.46612677733709        0.14593553587843       12.23208275628400
C            2.57005125507070        0.44522912417147       13.09948413376604
C            3.80737560045513        0.81584893473043       12.57878022466151
C            4.86406194834323        1.09938620211110       13.41357058035697
C            4.70457665957063        1.02114475947159       14.78295722618817
C            3.48259586269895        0.66012362972585       15.31514881766655
C            2.42431311777103        0.37582918505264       14.48260559483085
C            0.14339096348569        0.55848435938320       12.60832413835506
C           -0.95448857057510       -0.26515513828759       12.37210943640141
C           -2.22173830680759        0.13356954849852       12.73101134291279
C           -2.41656760288107        1.36032187961467       13.33430205882579
C           -1.33765215670583        2.18656716029736       13.57965458596891
C           -0.06922223704854        1.79029103367684       13.22190766834984
C            0.86098671812433       -0.32875246301954        9.90021758454007
C            1.06550326004512       -1.00140890909881        8.72266800204011
C            2.41875321001845       -4.05636682235575        7.36277359286318
C            2.59023649987256       -4.79334192609405        6.21353396675540
C            2.68036707392980       -4.17828823282808        4.97247765435874
C            2.85263171053489       -4.97251580152579        3.76900557738915
N            2.91475794640505       -6.28545516350274        3.89604660474883
C            3.07474831418205       -6.96113936104126        2.74562850242444
C            3.15346419299898       -8.36598474030517        2.77900417529001
C            3.31892804360614       -9.11829683667679        1.64415097018318
C            3.38751965332647      -10.51341991965402        1.76477503394887
N            3.44002200083912      -11.66669294421748        1.89759160540922
C            3.41572580046641       -8.46275818049764        0.38572119696991
C            3.58793035496485       -9.17048297604158       -0.81211335550418
N            3.73072172441988       -9.72671180845345       -1.82241387796337
C            3.33930224260004       -7.09409523509528        0.33718655871313
C            3.16865280047616       -6.30871924827041        1.49213700691230
N            3.10065813935675       -4.97150475486950        1.37208761434882
C            2.94521858938679       -4.31735223525793        2.50699924534784
C            2.86984555663207       -2.86633666856509        2.45333844846727
C            2.96075824725688       -2.20334692809560        1.23985557356182
C            2.70898852167609       -2.11416630130961        3.63694956395299
C            2.60586351731978       -2.76831301970301        4.90333161975435
H            1.73914696465151        1.23993749183912       -1.39405760710971
H            1.55995213986664        1.46991839624739        0.34186005206386
H            0.83897759375905        0.06427469383724       -0.43638317264030
H            3.24952054798096       -0.53118176244684       -2.32052748597382
H            2.33378293987422       -1.75062405107476       -1.44611117322760
H            4.09026731912457       -1.65224828134142       -1.25915504660582
H            4.31901459927751        1.38363305824721       -1.13093161751223
H            5.12780746909861        0.31909239980807        0.01945171965480
H            4.10064984608090        1.62754061766856        0.59826534712753
H            2.70498582747430        0.98476941005268        2.26551589238216
H            2.49413763339003        1.11328487908173        4.70977267534279
H            2.33467661011943        0.00676353367817        6.86294925548893
H            3.71559202773481       -2.87795063829966        9.62790025578541
H            3.33334310940191       -1.68630513762385       11.73968954327120
H            3.92178577413397        0.88759944018855       11.51139281002720
H            5.81683153506044        1.38368892660709       12.99803115745362
H            5.53308236169301        1.24210180696187       15.43566706871890
H            3.35760100769433        0.59998005890580       16.38379445879439
H            1.47156727912231        0.08709861662159       14.89049613622553
H           -0.79454742765881       -1.22511419784558       11.91328004286770
H           -3.06308609160574       -0.51284196221503       12.54237875325132
H           -3.40952644407030        1.67197132232694       13.61387545271312
H           -1.48926463580154        3.14355781931621       14.05129177822302
H            0.77503970935617        2.43180025649461       13.40410447252072
H            0.06718898017646        0.39262249075518        9.98169504365587
H            0.41040058442585       -0.83527592148841        7.88490487884928
H            2.33367325068569       -4.55853826817841        8.31092326705481
H            2.65168371157122       -5.86670675492341        6.25851027464008
H            3.08040249915494       -8.85870270622281        3.73159708415721
H            3.41142957538926       -6.59626564348049       -0.61280636468967
H            3.08242003061298       -2.80301423370867        0.35787484074199
