72
 energy: -14.097772928012 gnorm: 0.000411646015 xtb: 6.6.1 (8d0f1dd)
C            0.66900678737406        0.33492108658158        0.02227543340925
C            2.19162082769439        0.12528906887323       -0.07310012447547
C            2.87936161291962        0.75355844562683        1.15309075656278
C            2.47373328003850       -1.38956890197427       -0.06476063318695
C            2.71933352266393        0.79850108467348       -1.35009592773382
C            3.38016241337903        0.08683520766560       -2.34450798819989
C            3.86534050945570        0.70764509521501       -3.49865872738566
C            4.55359514652814       -0.01280193813838       -4.52489430269393
C            5.02622195136969        0.61577515892250       -5.62561072899486
C            4.85590305860387        2.02431652713937       -5.80763023539313
C            5.34704388572925        2.69488296768684       -6.93080634216956
C            5.19087291326128        4.06377342634409       -7.08761614582931
C            5.71123270268401        4.82109487540304       -8.31890483027315
C            4.53485492744943        5.53762779282425       -9.00895118990216
C            6.75686012134627        5.85906404645817       -7.87286941335873
C            6.36699267897885        3.87146859211155       -9.33916523071110
C            4.52688901815110        4.77019588780606       -6.09450143149731
C            3.98572502089401        4.15484838553568       -4.96983947712716
C            3.26580328663960        4.89191036650981       -3.95181822114949
N            3.00792656125090        6.29426007257868       -4.09067826206837
C            2.54369963584804        6.83739624028975       -5.33713737078558
C            2.97537719400540        8.08775017703523       -5.77240564267277
C            2.56492044198513        8.58715795410454       -6.98793116434518
C            1.71595414165379        7.84855311386372       -7.78957610108085
C            1.27806477284187        6.60698902446887       -7.37056153588595
C            1.68706631086839        6.10541922545043       -6.15549165225502
C            3.09639499738516        7.14772668870300       -2.93960738482059
C            2.19996186374299        8.19720521066998       -2.75577576415647
C            2.27720971612079        8.99980460520150       -1.63962873692145
C            3.25092457144126        8.76951316634655       -0.68696817141839
C            4.14831559856634        7.73279027567114       -0.85561622073559
C            4.07267731515988        6.92914714983434       -1.97102011210136
C            2.81608514378991        4.23063298069880       -2.83884763325275
C            3.00290792440025        2.83571376363884       -2.65516569003105
C            2.53924793723365        2.16315994107494       -1.52042015678665
C            3.67573671623756        2.09819475288968       -3.65666060222401
C            4.16898231765340        2.76130811242338       -4.81544529736110
H            0.26350536851056       -0.14970803574427        0.91030048959877
H            0.16750963078630       -0.08429415368311       -0.84977956607443
H            0.41645848913613        1.39308434541574        0.07681172271461
H            2.53564364612697        0.28592188276815        2.07556242915762
H            2.66941666129537        1.82019350764633        1.22246737861320
H            3.96040159622201        0.62879970925801        1.09370813963477
H            2.09135011071485       -1.84857824491482        0.84692439119801
H            3.54401933867720       -1.59001493460046       -0.10948457047600
H            1.99215254351334       -1.88314268500749       -0.90867403724730
H            3.53416886932236       -0.97077701069627       -2.23876485887177
H            4.69308650646820       -1.07318551401630       -4.40360680259189
H            5.54526149547061        0.05883823697520       -6.38653203021890
H            5.86038394903531        2.12053407441432       -7.67926461442725
H            4.08256608183184        6.27927435759952       -8.35236155431447
H            3.76070370687859        4.82424919001671       -9.29046348280836
H            4.86515419662260        6.05197285998654       -9.91112603762173
H            6.32377078687317        6.58850040129698       -7.18930577367160
H            7.15728969348343        6.40183479969168       -8.72894917891701
H            7.58775626807904        5.37331209167891       -7.36169634254795
H            5.65800231959011        3.12049430953583       -9.68716743309929
H            7.22703010261045        3.36184824582992       -8.90537499873461
H            6.71699165129223        4.42344225698148      -10.21137544596344
H            4.42020601217757        5.83247852498219       -6.19528290729934
H            3.64786376549519        8.65099224898746       -5.14897851222031
H            2.90898370530823        9.55462704234405       -7.31575944371447
H            1.39732175988960        8.23933937785313       -8.74226778454454
H            0.61937533630527        6.02808293714337       -7.99729806105170
H            1.35657055473785        5.13623980233709       -5.82470098033833
H            1.43555050764971        8.36367637628580       -3.49458044266348
H            1.57519113975752        9.80703371071826       -1.50738466785891
H            3.30955496317400        9.39751824858977        0.18720847826939
H            4.90857033129337        7.55235664811846       -0.11307303672056
H            4.77120733680438        6.12257579403955       -2.11130242882008
H            2.28341968792577        4.78446720114159       -2.08822837812391
H            2.02984506159950        2.73043276680808       -0.76293739922343
