99
 energy: -17.815280130632 gnorm: 0.000308869179 xtb: 6.6.1 (8d0f1dd)
C            3.61959092165438        1.10826654488230       -3.39771057949170
C            5.01703822800408        1.74538139943424       -3.27381074892460
C            6.02807650205498        0.62808814224734       -2.95100030444477
C            5.41146602480767        2.39720119090170       -4.61055646575041
C            4.98803665760096        2.81917991900060       -2.17634811514514
C            5.87339266044722        2.83648755036456       -1.12641349669093
C            5.80573248764720        3.80975584669311       -0.11728401639992
C            6.83354105280871        3.86998242278337        0.86826779333946
C            6.82414961176091        4.81994090234629        1.82077368653451
C            5.73164459666366        5.72839204452909        1.94178594984147
C            5.72100869374592        6.65157534010590        2.99896574387037
C            4.62949418397524        7.44627958599453        3.25710066226967
C            4.60771867743872        8.49367707757860        4.38059954085561
C            4.25740646705838        9.86968476593693        3.78237117704265
C            3.55064999198735        8.09753664530412        5.42643875430585
C            5.97543260227773        8.60680922995817        5.08161901495289
C            3.49940783125686        7.25441888171722        2.47018665786434
C            3.46523299681465        6.38285316678907        1.39437154227746
C            4.63994815239365        5.65153967124664        1.04168202783609
C            4.75741399801880        4.76345418350674       -0.10811763621703
C            3.93776156575211        4.81923872692852       -1.27059821703298
C            4.06029632965062        3.85551456212277       -2.24842893005363
C            3.00926089605973        5.93081120096650       -1.57930047419146
O            3.09217942855433        6.53207144486647       -2.62955174980319
N            1.96773650588657        6.18316071756911       -0.63384436781841
C            2.16387825622064        6.21451835659851        0.74817216173673
N            1.00840363934418        6.22087203920425        1.39963065273947
C            0.03792375697846        6.18579747467937        0.45931104149829
C           -1.39192169838843        6.07884331006293        0.63477135791907
C           -1.97366342118246        5.91651505088672        1.88216121371356
C           -3.34884281234513        5.76673429898512        2.03167211012066
C           -4.00007864744639        5.51931702955791        3.40136477496897
C           -5.03728332926276        6.62171114548356        3.68397667889553
C           -4.69368014611361        4.14405172681962        3.38805775723527
C           -2.95940639176225        5.52746315765789        4.53807600498869
C           -4.14252090115600        5.80952972148649        0.89748571612797
C           -3.60433678820742        5.97730211213339       -0.38202966130033
C           -4.42245305210359        6.02952537286983       -1.55396521069916
C           -3.88160564426133        6.18872043790355       -2.78179079296086
C           -2.46701757269444        6.29456519870878       -2.96265668843721
C           -1.88777929575773        6.48202200921030       -4.22247290266615
C           -0.51762333314845        6.58934109253878       -4.39128835946194
C            0.07076185646229        6.87258371471110       -5.78200601058267
C           -0.34501477041371        5.75392877476372       -6.75366748047813
C           -0.46159463535181        8.22619127919089       -6.28738326525422
C            1.61192313373219        6.93963004692979       -5.74516045315208
C            0.29094357143079        6.47690959926189       -3.26923642397286
C           -0.22783200856558        6.29058171359448       -1.99859098003779
C           -1.63095718539710        6.22255046353808       -1.82899636935589
C           -2.20677538255883        6.09212969229077       -0.52243554699306
C            0.59863072539447        6.22910725253858       -0.82156567702305
H            3.61525000624935        0.31997071395370       -4.14930758675418
H            2.87060578814315        1.84418492944260       -3.68499464443152
H            3.31141571045627        0.67062084005738       -2.44901921465993
H            6.00515147724464       -0.14682964843426       -3.71619707642103
H            5.79767468588325        0.15651720234830       -1.99647656780782
H            7.04473627976266        1.01615413259886       -2.90924132854104
H            5.44920003430726        1.65736756005861       -5.40907672962801
H            6.39250086658642        2.86440976914628       -4.53603028019741
H            4.69716575705663        3.16617868635910       -4.90030020796036
H            6.65283471057950        2.09989422467947       -1.06673770371216
H            7.64609349272682        3.16626643359730        0.81249924321594
H            7.62431218070629        4.87475168643732        2.53860775292703
H            6.59251259127035        6.71451058584390        3.62369128132843
H            3.27148000827629        9.86316579270347        3.32080314872804
H            4.98122966656413       10.15242716748348        3.01904594271707
H            4.25926679391528       10.64165835180708        4.55075125626829
H            2.55607140379403        8.05278542581458        4.98574365866457
H            3.52159562117023        8.81769125627026        6.24313824294063
H            3.77416551468305        7.11827600001982        5.84758921009437
H            6.75760011158270        8.87437280780374        4.37227743357940
H            6.25003000698756        7.66939233813300        5.56317102121256
H            5.95220123939989        9.37626158786932        5.85233253435611
H            2.60080035527409        7.79866704164179        2.69851087515574
H            3.42063526688761        3.93275100241311       -3.10937217652981
H           -1.32308066433675        5.89032801085702        2.73571672301350
H           -5.83167042160271        6.62028758515426        2.93971923345566
H           -4.56773785991847        7.60432678038449        3.67076921585365
H           -5.49831972177241        6.48122546520229        4.66076382275057
H           -5.47609516861575        4.10231405981969        2.63218692096731
H           -5.15065768530004        3.92744704644550        4.35269770582558
H           -3.97651673926889        3.35379721040827        3.16976467184274
H           -2.44451470198124        6.48571189527558        4.59143755725679
H           -2.21776093837819        4.74234852116568        4.39691779805014
H           -3.43836812621733        5.35638769428804        5.50132346107983
H           -5.20722613314471        5.70005429396846        0.99164256462357
H           -5.48914766791294        5.94621400446697       -1.43947486596426
H           -4.51515691431193        6.23556557219581       -3.65031564208312
H           -2.53490808293900        6.56162161873508       -5.07651041997550
H           -1.42731555208350        5.70157794637570       -6.85851120978769
H            0.00460361289637        4.78570850383174       -6.39785315027892
H            0.07661767607332        5.92186636542694       -7.74389369451888
H           -1.54652020284542        8.21588863446378       -6.37775553172122
H           -0.04770562422069        8.46862594406613       -7.26528770825562
H           -0.19148687429256        9.02636453683309       -5.59934753631605
H            2.03909731668983        6.00046637958229       -5.39605505966653
H            1.95740795955777        7.73665329805861       -5.08762272943992
H            2.01469457520753        7.13651952768658       -6.73780645186566
H            1.35418338144920        6.56613998179667       -3.35444485600240
