73
 energy: -14.861152521395 gnorm: 0.000464347663 xtb: 6.6.1 (8d0f1dd)
C            2.65656416633594        0.07955334825161       -1.32082891339027
C            3.99108936595587       -0.08447212400070       -0.57018812720129
C            4.14212639570496       -1.56291279176070       -0.16532416359633
C            5.15880713180999        0.29087834801152       -1.50016129334621
C            4.00090623356457        0.84362239913198        0.65285178836367
C            4.21838053226324        0.39599869579922        1.93179047798595
C            4.23191498683584        1.26940980090514        3.03150163410748
C            4.60540984457192        0.75678754610827        4.30668793363189
C            4.69969930121405        1.56660014348522        5.37508333092313
C            4.34096468736527        2.94329300643597        5.28739949000906
C            4.39428048899192        3.72249857355995        6.45391835829859
C            3.93689035901558        5.01671725887110        6.48351234400276
C            3.96331942815916        5.88259665113400        7.75141409507513
C            4.61931210917230        7.23973428725160        7.43353870952361
C            2.52078849863564        6.10577069189493        8.23778501521146
C            4.76831189165968        5.21221765631193        8.88114350542964
C            3.36604380041625        5.51312208184683        5.31861434701883
C            3.31027796080499        4.80283633253788        4.13011283937698
C            3.87919819315083        3.49129326637864        4.06196873030833
C            3.94495923655606        2.64961187812045        2.86970030741919
C            3.81755170527715        3.10858041724924        1.52782840542080
C            3.83569360221808        2.21390681868943        0.47902650523418
C            3.78539035030022        4.52884589313046        1.12551874241288
O            4.54434340802355        4.94501872359041        0.27435458715528
N            2.77919730206796        5.35794121139851        1.70526551806074
C            2.53658627833872        5.45034290174945        3.07636676981935
N            1.56327030592487        6.31435298759994        3.32990814599405
C            1.13842159039507        6.77850206246703        2.13325427309047
C            0.05214842443224        7.68500046128282        1.86295050975548
C           -0.69873490277639        8.22877738317882        2.90636878224461
C           -1.74140824913475        9.07663190254686        2.64499312072932
C           -2.05653291170267        9.39883221225149        1.33287113197542
C           -1.32995482527768        8.87414637022187        0.29332649128107
C           -0.25584373463604        8.00302100852121        0.52161601729984
C            0.54043212884088        7.42871283927873       -0.56804512171219
C            0.27874289557267        7.71930309174753       -1.91404609681553
C            1.04421714408335        7.19029614198157       -2.92203658540408
C            2.11084025325090        6.35524083987858       -2.62677908148351
C            2.39317643967594        6.04864698380002       -1.32421847358017
C            1.61925882912474        6.55831180183070       -0.27856571798632
C            1.89108845918516        6.22685620152128        1.09594000011186
H            2.61080124000093       -0.58282481511893       -2.18474394011837
H            2.52452057271035        1.10014529043895       -1.67725639322709
H            1.81696237153256       -0.15780953095911       -0.66820729445565
H            4.10933846653226       -2.20872251599174       -1.04235828154640
H            3.33745675694628       -1.87009386952587        0.50198545181972
H            5.09362273321235       -1.73803963256541        0.33563858486238
H            5.18740463488173       -0.36020268068477       -2.37335229847544
H            6.11073278399119        0.19899360375454       -0.97823444961551
H            5.06964862082874        1.31753062029954       -1.85235221118302
H            4.40749392020953       -0.64621692098988        2.11134100627392
H            4.85243017225182       -0.28751051403687        4.39357483441528
H            5.01174934888723        1.17286567469339        6.32732258029853
H            4.78622181020081        3.27109500602842        7.34657006811581
H            4.05249079601287        7.79140898456157        6.68520014972056
H            5.62962651594486        7.09814627376074        7.05107517040376
H            4.68037875058021        7.86147112057253        8.32624520606842
H            1.92540486165941        6.61624443976938        7.48184861189748
H            2.50317534015444        6.71086879705092        9.14374924899859
H            2.03710093753731        5.15433657639939        8.45690765981210
H            5.78940925665800        5.00456842146773        8.56246344133293
H            4.30599828992857        4.27654155073571        9.19355655322757
H            4.81899074203314        5.85965869595522        9.75618837391796
H            2.91682614600127        6.48981804949210        5.33292214431105
H            3.74508043081555        2.61037860058469       -0.51664968193299
H           -0.44302885132564        7.96505088875731        3.91793497165379
H           -2.31763275866355        9.49166471060717        3.45563513846029
H           -2.87887989319648       10.06566369366456        1.13054208211499
H           -1.59650149707745        9.14061791041079       -0.71294989820972
H           -0.53642492422309        8.37090290071680       -2.16997418721827
H            0.82321347240691        7.43145875491989       -3.94906385488027
H            2.72111720056962        5.95624861104057       -3.42046717221632
H            3.24327264660184        5.43919599997992       -1.08161994738630
