114
 energy: -23.071684522415 gnorm: 0.000323052841 xtb: 6.6.1 (8d0f1dd)
C           -1.76981285066124        2.61231971667208       -6.22529758533551
C           -1.22327724549079        2.65719769343545       -4.78756516959498
C           -1.70213981813371        3.94339915722296       -4.08898122767378
C           -1.78816206877269        1.44869554517748       -4.01571182378529
C            0.31276509495774        2.64049801115133       -4.82873279452759
C            1.06083612181950        1.61051538798383       -4.27081110301025
C            2.43652974878069        1.62262440652049       -4.31929098390703
C            3.12024694331525        2.67039454244163       -4.93036743344486
C            4.60449508261498        2.66874033559553       -4.99588294515176
C            5.26465810622578        1.76887196645919       -5.81346354640879
C            6.67537469973713        1.73764227248542       -5.87678128862847
C            7.44337146764327        2.63136060282615       -5.15063712967462
C            8.92409193843010        2.63027416267814       -5.27809341646366
C            9.58292528417888        3.67878340518870       -5.92074582507151
C           10.95465101085808        3.67812018358857       -6.04195472367102
C           11.69457241118949        2.63207746255183       -5.52721501380088
C           11.05863533990652        1.58045622279218       -4.89755468452383
C            9.68710015603219        1.57765453815727       -4.77241949971947
C            6.79227489847199        3.58573017096860       -4.29474657170700
C            7.52233469452829        4.49447023795232       -3.53450524971460
C            6.89915206040517        5.41831690623224       -2.69679781575520
C            7.63666379013338        6.35385009969474       -1.92221057144058
C            6.99845714667371        7.24139836494544       -1.11631801973903
C            5.59286601577296        7.25101370345858       -1.03169829814194
C            4.85063241681880        6.37341845344993       -1.75509532464166
C            5.47745448785138        5.42907347234759       -2.61198830193304
C            4.74576120122095        4.51762712713621       -3.37134972612334
C            5.36772269466593        3.59974546028590       -4.21199418329332
C            7.30564819746160        0.74293568730225       -6.81575774379331
C            6.56411430980607        0.65868568336303       -8.12358295256739
C            5.15419065786009        0.73758031044216       -8.08328512637047
C            4.40601750341814        0.74147887959731       -9.24799064637884
C            2.92969524297705        0.91003308433395       -9.19920580833072
C            2.36704425714829        2.14891054539984       -8.88937156223110
C            1.00024915802805        2.31167913892460       -8.85484475718898
C            0.16941809741362        1.24394791934466       -9.13127879208463
C            0.70888052004840        0.00988406487968       -9.43689134274103
C            2.07544857633527       -0.15830364045075       -9.47106043594396
C            5.07474421628012        0.62397736496203      -10.51538733647055
C            4.36514676746514        0.62729044935063      -11.71246746443053
C            5.00685392451224        0.52766263962516      -12.94612324380195
C            4.29012692445921        0.53173679251418      -14.17302333484563
C            4.94605634720294        0.43713149498695      -15.35845200432068
C            6.34986201796484        0.33313366865160      -15.39502515066810
C            7.07244625164846        0.32541728705419      -14.24516852185266
C            6.42681193207041        0.42204245583780      -12.98310059664054
C            7.13826827349258        0.42257468023222      -11.78440822591738
C            6.49723110025563        0.52132594486305      -10.55346433188754
C            7.24124457496685        0.54923431875950       -9.32513166978449
C            8.72555910327371        0.46751808248211       -9.34676519746234
C            9.51133088026538        1.59770058455050       -9.13411365481233
C           10.88494713162809        1.50673097658806       -9.12306892059167
C           11.52952583390816        0.29239243466085       -9.32426912600212
C           13.06493961680364        0.23244315501612       -9.31005795124963
C           13.61541373317629        1.08924358650925      -10.46435125925169
C           13.58638878954664        0.77675086849864       -7.96756609456872
C           13.58289176356302       -1.20897286331753       -9.48068727896287
C           10.74254057296684       -0.83218561000886       -9.54448059679050
C            9.36826209454326       -0.74968130739296       -9.55525749777076
C            4.50381875019018        0.84568876794314       -6.72829958682517
C            2.37377128557720        3.70086837891349       -5.49559554414150
C            0.99793858345424        3.68112429723636       -5.44405739597304
H           -2.85959777957408        2.61659198613669       -6.22947613318391
H           -1.43426879106079        1.70849962267053       -6.73268162660575
H           -1.43013896687534        3.46950591248966       -6.80521286806767
H           -2.78972045092378        3.97000829337295       -4.02416196057505
H           -1.38011178110165        4.83265402638465       -4.62914058442629
H           -1.30227133157474        4.00298705901911       -3.07694218118764
H           -2.87714567961786        1.48327000035608       -3.98705380715200
H           -1.43146488544413        1.43945201185713       -2.98598358380902
H           -1.50233893426512        0.51052608654439       -4.49083123854304
H            0.56505385226268        0.78595393910899       -3.79034213381799
H            3.00361165650242        0.81838352160382       -3.88237616077068
H            9.00013117883710        4.48910324579774       -6.32444591265337
H           11.45129063738644        4.49566137835049       -6.53882959165320
H           12.76911289435762        2.63959645789363       -5.61040124974217
H           11.63696906554199        0.76203841664866       -4.50049418926143
H            9.18651962063033        0.76294747736872       -4.27779982932324
H            8.59508618955111        4.48526761811759       -3.59100100924862
H            8.71125142884935        6.34873462214922       -1.98570138833253
H            7.56910749970089        7.94692169643942       -0.53461142477318
H            5.10574142467522        7.96323641319623       -0.38577206321104
H            3.77618498227740        6.38255721430011       -1.68943465568804
H            3.67351572345344        4.52703485708075       -3.30473935389743
H            7.32206999195765       -0.24511033384694       -6.34286301402072
H            8.35141425327019        1.00844730740300       -6.99361796704228
H            3.01996030598202        2.97884424473072       -8.67920637665330
H            0.57961855865392        3.27453187949060       -8.61465649021426
H           -0.90033107070956        1.37480597130835       -9.11539329620199
H            0.05921884707793       -0.82307799367691       -9.65135514501805
H            2.50169916041727       -1.11775011188431       -9.70952456743329
H            3.29456684668256        0.71273062879256      -11.68853075679654
H            3.21697566444391        0.61189613209992      -14.14732410566018
H            4.39116865090938        0.44177484088807      -16.28246849024182
H            6.85126337173286        0.25990497906019      -16.34634161247195
H            8.14562474054255        0.24706772924806      -14.27545584226885
H            8.20990442317242        0.35119921824627      -11.81433188577535
H            9.02671057190713        2.54495306508786       -8.96952952563702
H           11.47071769922256        2.39333950254764       -8.95317113045785
H           13.31461200974242        2.13114139889423      -10.36076075367057
H           13.24429780626637        0.72755650370092      -11.42306416066040
H           14.70448962627766        1.05679981716697      -10.48945960998518
H           13.31826424907471        1.82384157515013       -7.83596179582952
H           14.67234660796039        0.70370131015729       -7.91177823082217
H           13.16652115323470        0.21362134000639       -7.13428251543311
H           13.26907022327312       -1.62931787583343      -10.43584772330148
H           13.21826232786984       -1.85332087884448       -8.68096153241680
H           14.67218306521518       -1.23409100233249       -9.45366549690387
H           11.20688775788100       -1.78860852935960       -9.70630904815162
H            8.77043918856411       -1.63025553367880       -9.71796151852408
H            4.44397035058074       -0.14937276417943       -6.27403192295007
H            3.47107205664361        1.19044457288773       -6.83265407305539
H            2.88983081995563        4.51109629885019       -5.98170988380188
H            0.44195536992550        4.48639512008866       -5.89193717317040
