98
 energy: -19.631887744700 gnorm: 0.000782844003 xtb: 6.6.1 (8d0f1dd)
C            0.37912080163489        0.15100536987896        3.23254718610007
C            1.88781025657075        0.45953548449154        3.21611560450190
C            2.38554752495712        0.54402151260654        1.76119878923225
C            2.11135954356151        1.82997867041046        3.88468447146953
C            2.63757204396909       -0.66254284276850        3.95073931137425
C            2.58089646928684       -1.96253884186780        3.46307891706411
C            3.20006464464429       -3.00137223854739        4.12086681479669
C            3.90458588862026       -2.77705343384936        5.30100336773707
C            4.45938742941494       -3.90331751762514        6.08605943745771
C            5.22165101256917       -4.96821262899351        5.42833385471553
C            5.76398588139981       -4.86963646186651        4.14069409361949
C            6.00421460505557       -6.00883433132241        3.39033925845361
C            5.58623304502075       -7.25305726061555        3.82903634893655
C            4.99337953360367       -7.40539153163514        5.09343934645916
C            4.11737708778397       -8.50663716926036        5.46129964141670
C            3.96050038180369       -9.68965427969364        4.58264265448345
C            4.18337438307067      -10.97433315885600        5.08047021631540
C            4.03451961967336      -12.07875267941389        4.27108340193755
C            3.65351650678467      -11.92608521854608        2.95257533252313
C            3.41442527065512      -10.66372919224782        2.44614374210743
C            3.56088258763626       -9.55643062837061        3.25176954421876
C            3.27969460779803       -8.35762621249067        6.55680193396060
C            3.41148360565240       -7.26829502560236        7.44523007582855
C            2.42048510844112       -6.70004779601237        8.40756798257859
C            1.73554052299574       -5.41340929596696        8.10476878525780
C            2.37531726117792       -2.87363134540273        8.70249524366141
C            1.01560764963291       -2.24622892752199        8.67943390756387
C           -0.19071138951116       -2.83602282274306        8.67929323703333
C           -1.46297894501137       -1.95767561495669        8.62390838086986
C           -2.11603225613914       -1.92540369348519       10.01702700033792
C           -1.16136623193614       -0.50560729163202        8.19379569328828
C           -2.45286735836886       -2.54313170595208        7.59602591037978
C           -0.41262386551920       -4.26169251037621        8.80250943603468
C            0.39773390231678       -5.33207399063396        8.58473251421139
C            3.15337094974810       -6.52551347069851        9.71938781406237
C            2.70411007951749       -6.86847398747312       11.00511547016917
C            2.97805459528347       -6.02013187661169       12.07303330362507
C            3.44487609398194       -4.74337882975089       11.83300169323954
C            3.67977283251289       -4.28946999262256       10.48082943981333
C            3.06484169117813       -3.05228565074984       10.07324301467943
C            3.11631377556751       -1.93152454916522       11.00199796829169
C            4.25341429803688       -1.75455178682748       11.81701523797406
C            4.34405260637772       -0.70977047416382       12.70355062412752
C            3.30599654955717        0.19552123824845       12.82168562391228
C            2.17021195477847        0.04255154546433       12.04830732772809
C            2.07281497555219       -0.99762723204869       11.15661213247203
C            2.43898388383153       -4.05543166372776        7.69856748101155
C            3.93456550768035       -4.16647068400560        7.37109489365970
C            4.50762947001098       -5.22195289362199        8.16732342615235
C            3.99777871980512       -5.37120903457073        9.54248842399634
C            4.55032266552873       -6.41178346421826        7.30775111924693
C            5.06475581410582       -6.28488831183178        5.97338972354509
C            3.97533275294040       -1.47281365922999        5.78416835658298
C            3.35389068245669       -0.43878366776335        5.12090827142464
H           -0.18625162888931        0.93885199357003        2.73516114851412
H            0.01436801960758        0.06853106486539        4.25634631983082
H            0.16197313181111       -0.78763292744003        2.72412440472260
H            1.88234882176784        1.34732079322415        1.22334015084135
H            2.19863601452881       -0.38376234002840        1.22218808102556
H            3.45742414607241        0.73856326164354        1.73186897246119
H            1.58208407397750        2.61448217079783        3.34396116972261
H            3.16894490504415        2.09284596521109        3.89591090372792
H            1.74181723882203        1.83222394542982        4.90996215619813
H            2.02640131772474       -2.16415832736834        2.56301550421275
H            3.11958955053119       -4.00750074804644        3.74635321918716
H            5.93886594723433       -3.89429431244420        3.71883724819198
H            6.43819433301777       -5.91257010506783        2.40865255928526
H            5.65959532706171       -8.10493966688017        3.17563157692343
H            4.48109604553780      -11.08921583300816        6.10859934368035
H            4.21754831765763      -13.06458238804622        4.66694948329014
H            3.53910246676019      -12.79157914507215        2.32028595900484
H            3.10872636374506      -10.54531763185141        1.41928600989299
H            3.35024857200141       -8.57339532668863        2.86620999670746
H            2.49517415099178       -9.07384863716074        6.72257445451560
H            3.03301858864704       -2.11474943552123        8.23488162184939
H            1.03228773603886       -1.17428409496220        8.58932168607660
H           -1.42746716944661       -1.51705132775562       10.75646766112479
H           -2.40315454014915       -2.92356151079563       10.34504277278941
H           -3.01219680399682       -1.30521308801629       10.01271172636161
H           -0.56738432469870        0.01909501681366        8.94168051915829
H           -2.08586486510045        0.05811597090409        8.06882648154385
H           -0.62977334326964       -0.48057618180247        7.24239480160468
H           -2.79092160256436       -3.53845041230319        7.87994599002727
H           -1.98701229089076       -2.61440473229148        6.61326654471617
H           -3.33657992784594       -1.91191960979643        7.50406445455503
H           -1.40527915954137       -4.51212338534359        9.14328775616800
H           -0.02059078375466       -6.29526533969426        8.83817430867515
H            2.10846273161988       -7.75563335268867       11.14398230784837
H            2.69861584943383       -6.31109721561283       13.07225477082656
H            3.43381086908115       -4.02411004482298       12.63498473793428
H            5.07396265048333       -2.44411110857873       11.71496952229220
H            5.22904719453338       -0.59322793389404       13.30798172746647
H            3.37851311765404        1.01395934068441       13.51931535191076
H            1.35304827347842        0.73801237512512       12.15377593693864
H            1.15412276746137       -1.13904575995082       10.62173789380422
H            1.92798292675349       -3.73408541577381        6.77964298832955
H            4.52158973896444       -1.28447382181056        6.69258987636861
H            3.42000822437780        0.55456231852458        5.52770711813575
