84
 energy: -16.247024441092 gnorm: 0.000515460485 xtb: 6.6.1 (8d0f1dd)
C            2.74388273011631        0.25799914945597       -4.04752021584471
C            4.12328207779543        0.93901724504191       -4.11932829295019
C            5.19817856003429       -0.10454734181781       -3.75607951560100
C            4.38812169131200        1.43105614735203       -5.55330118262580
C            4.14300789021955        2.13494519245089       -3.15538468714748
C            5.01713298834254        2.20483741095191       -2.07874619709256
C            4.96603112186632        3.25444601460806       -1.19387415895739
C            4.03813613273071        4.28282769717956       -1.33508224826769
C            3.92372770193843        5.31499255190330       -0.31066905055862
C            2.70464352148933        5.98717662501205        0.13633396317602
C            1.38501666051250        5.93900188716033       -0.30706723202626
C            0.42719814316422        6.67769995127840        0.35536229879869
C            0.75602411037823        7.45387600835294        1.46074723774889
C            2.05016545400159        7.49675117043221        1.93258743123907
C            3.02243997326624        6.75881509811948        1.27120710450920
C            4.43311735487806        6.56334326640128        1.53740449572772
N            4.88532067692467        5.70559137304284        0.54001141015722
B            6.34846551840852        5.26006256356304        0.62708669107224
F            6.92250965284343        5.27851780522774       -0.63809435376440
F            6.38865100688906        3.99350370797387        1.20762518483311
N            7.16006771782872        6.16769566655416        1.56943608811322
C            8.50611792161956        5.94408350519840        1.57813479715248
C            9.17117070323021        5.94391563412605        2.78070058065860
C           10.37065602480057        5.21134105220440        3.16540718868058
C           11.44640035010135        4.74466650237237        2.42229752343823
C           12.40854575144178        3.98842076117938        3.05661875391840
C           12.29712358721599        3.67953727171388        4.40764753615166
C           11.22493076581700        4.12201905641687        5.15314653872710
C           10.25217248047637        4.90513081065996        4.53847067050876
C            8.99380378007321        5.47137448690789        5.03166054832005
C            8.17485816141317        4.94627043138574        6.12514843926974
C            6.82691969551329        4.69884772159988        5.87482132372741
C            6.03804087572324        4.05308901692206        6.79378448878380
C            6.56122008169492        3.61601252684805        8.00318165216430
C            5.66039100260573        2.83136868414485        8.96885245944111
C            6.42459980934486        2.38697654229527       10.23005468479601
C            4.47809673726202        3.71910628779646        9.39746762263815
C            5.13059714208017        1.57226118406041        8.25514918032452
C            7.89978310017096        3.88908480429803        8.26952778403119
C            8.69555762168840        4.53971402462492        7.35202771441967
N            8.47653001049063        6.13498383808064        3.97774382425389
B            7.33054903475749        7.14388931197318        3.81240271452421
F            7.87851587972963        8.39571367582053        3.54278221238543
F            6.51566369890044        7.17336208860940        4.93588477672674
N            6.52027999525536        6.70838480205969        2.59661846612078
C            5.19752806955382        6.98344713661858        2.58341342263205
C            3.19253595193491        4.23562431996328       -2.44271120732774
C            3.24494657468636        3.18157833913433       -3.32692206634232
H            2.70200470729268       -0.60983751820251       -4.70460070241027
H            1.94957905407162        0.94082433418023       -4.34488601829657
H            2.53360503673281       -0.07714461413714       -3.03239762770593
H            5.16987611462859       -0.94560038298038       -4.44791558636156
H            5.03873111240839       -0.49927016769245       -2.75326466180704
H            6.19681059851057        0.32795037775749       -3.80368307741920
H            4.40084112437310        0.59737086674977       -6.25443901234315
H            5.35039813815015        1.93801441557515       -5.61360494302233
H            3.62005677057725        2.12970461377596       -5.88084827426431
H            5.74102182126545        1.42591808676267       -1.91975738704031
H            5.64370492665055        3.28905543076297       -0.36201630573473
H            1.11321559851371        5.31352448250693       -1.13696582687296
H           -0.59453998889655        6.64863831440399        0.01434624448979
H           -0.01129490629522        8.02231479145769        1.95999197734074
H            2.31369040760578        8.08362370355237        2.79466751881831
H            8.94747868619615        5.49448362861942        0.70706932736490
H           11.51421416989408        4.97417502344795        1.37354332636532
H           13.25370116980442        3.62487815123814        2.49566568568803
H           13.05788451006200        3.07857533300086        4.87791300635854
H           11.13255397308771        3.86244054627816        6.19169523944209
H            6.42048078191809        5.01470820420420        4.92879718517781
H            5.00325285030366        3.86909534875563        6.56390242439297
H            6.79932407068886        3.24604862932766       10.78494988334920
H            7.26677248449079        1.74616372778750        9.97147176706298
H            5.77352327406615        1.82212557947175       10.89641438916519
H            4.83456895843958        4.62414142576755        9.88763299190066
H            3.82650748843264        3.19129437411720       10.09285434968226
H            3.87708728891212        4.01843641161938        8.54018920469296
H            5.95531877172119        0.94569194769668        7.91758648611817
H            4.53134079986564        1.83201834474754        7.38391661496399
H            4.50657635338911        0.97843172782891        8.92190347469277
H            8.33184769742015        3.57747352624887        9.20345338530962
H            9.72744198530408        4.74235872863877        7.57782977849526
H            4.77868960401365        7.54492893497553        3.39724570304443
H            2.50847709378096        5.04662425240607       -2.61656812074551
H            2.56862197967230        3.16158641232794       -4.16346882045872
