69
 energy: -13.552391827003 gnorm: 0.000473198379 xtb: 6.6.1 (8d0f1dd)
C            2.46626996274173        0.02889774565228       -0.73081285826196
C            3.27780358112621        1.08407892338405        0.04416063295864
C            4.65298109540351        1.23153421951588       -0.63530379071675
C            2.55513379975579        2.44209689539787       -0.01687034739812
C            3.41116286969166        0.64793837432097        1.51169462486728
C            4.64062423157493        0.46341871504039        2.12971746169112
C            4.72616844861474        0.07135048315179        3.44761685504406
C            3.58387991995087       -0.15450988315609        4.21122992820661
C            3.68810250593332       -0.56480633256003        5.63010906869227
C            4.89962362152526       -0.45364306242820        6.37996536238781
C            4.81729943075111       -0.88800591344838        7.67109733803591
C            5.88501957829640       -0.88612254260270        8.63695466697637
C            7.14570003984366       -0.38627496084479        8.44602102794182
C            7.99207444188476       -0.51492936537349        9.56836196279668
C            7.40228934820525       -1.11958920753389       10.64644629697377
C            8.02495406858777       -1.38139925959830       11.91792653470178
C            9.29164650304911       -1.02602184292128       12.28041836544789
C            9.66628853067441       -1.40646019900657       13.60584138147770
C           10.99590362706681       -1.09895157498638       14.17970667036033
C           11.81652438635852       -0.13629417209289       13.59835406788104
C           13.06135177886731        0.14596468547148       14.11529773063238
C           13.54726440637965       -0.51761109592600       15.23280128577796
C           14.93765080259952       -0.16625938822502       15.78489005523748
C           15.99410314695575       -0.37991096549409       14.68478525884093
C           14.94579141996917        1.30643966882535       16.23360490633344
C           15.31201683187838       -1.04680045909494       16.99299510610077
C           12.72759972429736       -1.47150793089874       15.82042530535167
C           11.48063863340638       -1.75249369251752       15.30932736019230
C            8.65537381015113       -2.08416979095660       14.25815937724092
C            8.65225592638412       -2.62409680379591       15.53304757190077
N            8.69688854536312       -3.08343327623909       16.60255261013012
S            7.25930555507955       -2.21493179914779       13.24101993136894
S            5.75521888502012       -1.53397150878683       10.25095901236213
S            3.20135408202300       -1.45263823226360        7.98781685920838
C            2.65593425823242       -1.08562704482009        6.38548209505023
C            1.34102262946040       -1.31996348532889        6.02078620317499
N            0.23881197264532       -1.48057033729682        5.68013886398927
C            2.35369390739704        0.02540053309732        3.58485721958812
C            2.27155276763522        0.42221589834709        2.26983560747371
H            2.37855651685609        0.29952702671326       -1.78241849272140
H            1.45930238519452       -0.07173026808831       -0.32931749273976
H            2.94874398188605       -0.94600004158704       -0.67249917778117
H            4.53897872975577        1.52970161226424       -1.67699480610516
H            5.20032509028034        0.28977225009854       -0.62029532746121
H            5.25618685440475        1.99162187838749       -0.14036015048861
H            2.45666534770439        2.78551389770307       -1.04602516918257
H            3.10840870618042        3.19758551104602        0.53977222552512
H            1.55570891788029        2.37743739181622        0.41047450016392
H            5.54769855146541        0.62420126902316        1.57492329040718
H            5.69439622153826       -0.07774120885915        3.89099247962494
H            5.80697360281292       -0.04549540881014        5.96830046531890
H            7.46278499913369        0.07009094577522        7.52148603321389
H            9.01364937642645       -0.16864683989080        9.57518115161617
H            9.95881261014645       -0.51112651040561       11.61016013723493
H           11.46530848012844        0.40852884705046       12.74030080860447
H           13.66835306386933        0.90046562860595       13.64600282555802
H           15.81127746871276        0.26590703092661       13.82753997315207
H           15.98210456892221       -1.41163390656088       14.33545956567961
H           16.99418960856665       -0.16151777182293       15.05755581645929
H           14.73268990828771        1.97457041842472       15.40064500346187
H           15.91587581926112        1.58390636225359       16.64434439456540
H           14.19196289913926        1.47852151561752       17.00093809073776
H           15.31962723378530       -2.10172596654989       16.72139298433250
H           14.61109824318752       -0.90507374339533       17.81466979507023
H           16.30551351261607       -0.79404157828736       17.36185131605530
H           13.06151709990119       -1.99976901038473       16.69554170000859
H           10.86462345458341       -2.48040809306497       15.80483274663199
H            1.44753258550941       -0.16167077809682        4.13115820890825
H            1.30355508709210        0.55462752523710        1.81881949408713
