95
 energy: -17.348781477723 gnorm: 0.000598195461 xtb: 6.6.1 (8d0f1dd)
C            1.28141449913382       -0.97616677034042        0.24907714449850
C            2.71868170694053       -0.43268107390545        0.35488996350075
C            2.65111065925083        1.03180381095344        0.83049058477169
C            3.50638992245969       -1.24663107152516        1.39848327331978
C            3.40797687438932       -0.55700778062443       -1.01249832819010
C            3.54900061658807       -1.80787430814602       -1.59821277283453
C            4.15047794113504       -1.95718574854466       -2.82675966701840
C            4.63428229461348       -0.85515979608846       -3.52389128185684
C            5.25994865193690       -1.01167185164796       -4.85429145193748
C            6.36990218972479       -0.23123925829705       -5.28821461182067
C            6.85241803255089       -0.56728071187618       -6.52192533099385
C            7.96237868442388        0.05514557294160       -7.19585358393749
C            8.61863145500106        1.18926908756922       -6.79489081543613
C            9.67227181779793        1.57544495932805       -7.65131259265762
C            9.85378947633883        0.74137798297466       -8.72067873761452
C           10.85853399999563        0.88604812139021       -9.73939977085455
C           11.11666716159421       -0.02057751817676      -10.72685388499665
C           12.17247753836091        0.34927678905547      -11.60850716551946
C           12.65876830862952       -0.52741477148648      -12.69461811427188
C           14.00634316166953       -0.56340750856795      -13.03691468739584
C           14.45533730768793       -1.36995940994208      -14.05735315407915
C           13.58297964812724       -2.17735906390194      -14.77468761863558
C           14.12471862975234       -3.05704091609486      -15.91187529722132
C           14.77259063413426       -2.15920070211759      -16.98227825670209
C           15.17491760843348       -4.03141395856813      -15.34620934165742
C           13.00701929017441       -3.88178377421631      -16.57930790922486
C           12.23798164259482       -2.14637890998114      -14.42686268644464
C           11.78299725615943       -1.33956315812909      -13.40712635745544
C           12.70783329299591        1.58403413564744      -11.29861009909743
C           13.78354547027918        2.28308025531630      -12.01741958419128
O           14.75951774012908        2.71551005587374      -11.41836307688923
N           13.67494051259895        2.44510715584416      -13.40389399874296
C           12.37573839198781        2.43608315838845      -14.12349516874132
C           12.70404712680337        2.83888717862307      -15.56883658858095
C           14.03148341256705        3.62592186443594      -15.49039000309348
C           14.66880785386539        3.25410413598837      -14.13582629392233
S           11.93638807437942        2.24499501671472       -9.89379714543003
S            8.67668272801006       -0.54398882425048       -8.66981712323382
S            5.91834444759007       -1.88415688864969       -7.17420643894594
C            4.87252301858731       -1.94599476188688       -5.79377694316952
C            3.74638939015147       -2.88570563546682       -5.68471844723921
O            3.90826811324061       -4.08353298680253       -5.87786564665579
N            2.48125716716190       -2.38593774926453       -5.35291627866842
C            2.07416973806357       -0.97920373596321       -5.60188479171059
C            0.57261135725541       -0.92303249738810       -5.28433769674386
C            0.05886411355917       -2.37143909853960       -5.44395870390486
C            1.30500774940700       -3.27725481235140       -5.36778196570447
C            4.50313442165293        0.39832489792853       -2.93593474948341
C            3.90035045942921        0.54221633349729       -1.70565501366716
H            0.75694361018904       -0.87861115105368        1.19903009542709
H            1.27511552033794       -2.02943272711784       -0.02796738124063
H            0.71774970662024       -0.42845865839364       -0.50570247408972
H            2.16022431083568        1.10035190690174        1.80081160705178
H            2.08444059923769        1.64536792669823        0.13075630827775
H            3.64872512548130        1.45696652311446        0.93590487324343
H            3.04329739071602       -1.17084171117785        2.38172554125793
H            4.53022580279321       -0.88246855095174        1.47834323470105
H            3.54698527042728       -2.30139638627453        1.13025139766430
H            3.17752482559937       -2.67721335824636       -1.08414805821671
H            4.24486731251035       -2.93501323408852       -3.26690523791029
H            6.80876847932826        0.53944289587721       -4.67642652562543
H            8.34932097256798        1.74158921598753       -5.90823076854572
H           10.29079865546939        2.44285380105938       -7.48053422914394
H           10.58221141053491       -0.95241086608031      -10.81164778928110
H           14.69903214226106        0.05641376026829      -12.49409686998873
H           15.50245399438156       -1.37225467183666      -14.30530857564615
H           15.60928002323105       -1.59494292458970      -16.57281798778434
H           14.04876178714437       -1.44582627841352      -17.37517718113163
H           15.14735985569774       -2.75352145758669      -17.81496542218898
H           16.01667153621310       -3.49698497135018      -14.90836572202281
H           15.56453322641726       -4.68197677394072      -16.12850240322754
H           14.73814851872942       -4.66021106445286      -14.57103123015885
H           12.24690644805911       -3.23372574323110      -17.01433714853374
H           12.52743680795597       -4.54602647368874      -15.86111388318449
H           13.40963404097185       -4.50019965982534      -17.38100579787270
H           11.53230938785815       -2.75802474536269      -14.96009853091491
H           10.73523689167715       -1.31973588852910      -13.16186527735693
H           11.70423632508901        3.15239876479906      -13.64109234213962
H           11.91306613732064        1.44734800219548      -14.05897775806949
H           11.89876072423809        3.42986383798717      -16.02259753376605
H           12.82600253157084        1.94432707855129      -16.19104320609424
H           13.83927333882295        4.70448030446974      -15.53834880140167
H           14.69628572662309        3.39217316310759      -16.33101376233355
H           14.92543708173636        4.12850614960579      -13.52888199580224
H           15.57844074163658        2.65692371225336      -14.25353810179364
H            2.28084311657876       -0.73568421704160       -6.64818545929714
H            2.65997076002783       -0.29885291903788       -4.97759206905921
H            0.04129102592745       -0.22091209983349       -5.93887097737031
H            0.41732255713778       -0.57331803078176       -4.25678452358076
H           -0.44336203630965       -2.49382251859905       -6.41107086680062
H           -0.68054221177813       -2.63053924778465       -4.67621858563371
H            1.39133823603056       -3.95878030449786       -6.22037267466509
H            1.32313441285478       -3.88509808538567       -4.45774758228402
H            4.86547853644216        1.26339872044118       -3.46392703156702
H            3.80994775353974        1.52686349615452       -1.28294308135135
