101
 energy: -18.226794454167 gnorm: 0.000386779029 xtb: 6.6.1 (8d0f1dd)
C           -0.18925722461072        1.60954403088890       -0.33614427456802
C            1.25037805207275        1.09123153701045       -0.15960530995997
C            1.18664186975031       -0.41590864869273        0.15673933127000
C            2.03524956753678        1.28094126637544       -1.47053722988951
C            1.94335455366581        1.88022299650090        0.96215603545228
C            2.47928444023049        1.26428253978144        2.08612493914699
C            3.10414774029853        1.99777880696386        3.06920459850105
C            3.22240971524909        3.37989701660949        2.96652279769026
C            3.90168690443143        4.16509337242803        4.01856279090577
C            3.47678225740241        5.46501686559301        4.41644892121128
C            4.19027875513932        6.00267329421078        5.44882937074156
C            3.95095030926090        7.29065817383789        6.04302931876194
C            4.55109851133120        7.77296613975649        7.17420747607780
C            4.11605634888768        9.06252804841568        7.54904876669291
C            3.17996459525362        9.60211766208563        6.70618023046262
C            2.55856147484585       10.89422739881835        6.84293760793491
C            2.65631626480446       11.72338841977020        7.92505191214786
C            1.93069521618930       12.94338003731670        7.80336878711189
C            1.84644963410799       13.94459923446409        8.88788490569084
C            0.67819204032252       14.66748902538769        9.10481308313618
C            0.59936767261852       15.59735015557121       10.11620486595642
C            1.67784267552483       15.84209006489336       10.95556182434277
C            1.54673871221176       16.88577028275264       12.07563932502132
C            1.24492879759869       18.26207232822500       11.45436861838988
C            0.39890437712766       16.47912156053355       13.01879779461462
C            2.83976503768066       16.99907997395149       12.90638481150961
C            2.84438977168390       15.11880523780810       10.73835817085958
C            2.92885123976199       14.18763725172632        9.72653481248917
C            1.29112931687961       13.05702685718205        6.58516578201378
C            0.48574437872740       14.19549961142883        6.11553502509036
O           -0.65368942834948       14.01979512462957        5.70334732936352
N            1.03238974317434       15.48418494634691        6.14484751310861
C            0.23689265956572       16.59260963125532        5.60755430440374
C            0.73853881377186       16.97894092663578        4.21307330839777
C            2.24927116401523       17.27307179251605        4.23982350883633
C            3.03818553871104       16.09432073136901        4.83821292315899
C            2.49209003277231       15.71679441840830        6.21864149052766
S            1.55008711921906       11.63349191099288        5.63110003230109
S            2.83483003757132        8.47651231211875        5.41881437163386
S            5.43226367106766        4.88847667603139        5.94775829347307
C            4.98909800446734        3.72131461024529        4.74502043061935
C            5.70501663402272        2.44778314825673        4.56898536511731
O            5.87618571715082        1.69676950498944        5.52069042131272
N            6.18955750212858        2.10056721042825        3.30225375628923
C            6.96247611350556        0.86201665577024        3.16435341755797
C            8.45756938555423        1.17697170356160        3.05693831866682
C            8.72200030794700        2.19007540090811        1.92844958847035
C            7.86916407804188        3.45924888972730        2.10539296040076
C            6.38471488542314        3.10436784950493        2.23250513101619
C            2.68312761771217        3.99930712194309        1.84453010587950
C            2.05916772755100        3.26075793504494        0.86372369076128
H           -0.71425488490092        1.04676858047592       -1.10739313795295
H           -0.20097117621526        2.65926167087510       -0.62541433251798
H           -0.74981934761110        1.51173611039065        0.59295915991061
H            0.68378908484454       -0.95771611883296       -0.64381450629031
H            0.63353448018364       -0.60011732543070        1.07716553611243
H            2.18555267058697       -0.83796731662167        0.26163428925214
H            1.57642560709842        0.72065827899638       -2.28458466171942
H            3.06172624340331        0.93336627001178       -1.35781096224762
H            2.06761710497138        2.32929008315153       -1.76372530942836
H            2.41066034713181        0.19703987656565        2.19828159362294
H            3.51556584012389        1.50350670701529        3.93248080071162
H            2.64211030189267        5.97284854780321        3.96202817895055
H            5.27940263555025        7.20415152703483        7.73114440875097
H            4.48949499199812        9.57861683822647        8.41969501623213
H            3.20876414940546       11.46555232220840        8.81343066953305
H           -0.16980249161014       14.49193958841596        8.46548179292413
H           -0.31591905793329       16.14503154024126       10.25842064926899
H            0.30798597200792       18.24918514835676       10.89943214905903
H            2.03711380969215       18.55560224695791       10.76635024481006
H            1.16529461796997       19.02854989511579       12.22463727479616
H           -0.55272585157012       16.43818264945348       12.49102535892178
H            0.29511315249420       17.19148536024922       13.83664819119440
H            0.58514445417439       15.49584752805548       13.44952896796667
H            3.67896992534737       17.31160888088814       12.28587288230440
H            3.08958295083317       16.04762161674268       13.37474262514714
H            2.72519148849571       17.73639303954733       13.70048744742514
H            3.70153551473633       15.28336446126905       11.36654091128755
H            3.84437313912065       13.64424204067014        9.56865530113949
H            0.30312343674979       17.43841865476992        6.29920397711321
H           -0.81295588765849       16.27736587873416        5.58661955276434
H            0.17675990943155       17.83721039857910        3.81975832557755
H            0.54119105647871       16.15021728265662        3.52230941439196
H            2.43220405068188       18.17273864404345        4.84009073814638
H            2.61563424715947       17.51389566086308        3.23217414185307
H            4.11036423649439       16.32759109131037        4.89407112763869
H            2.95635154134508       15.22712580446581        4.17178671121777
H            2.67410308993721       16.51801896955491        6.94164629910532
H            2.98987287689257       14.82587990977125        6.61249922232390
H            6.60755979701170        0.32470583285340        2.27922644503631
H            6.74437867282740        0.22850522885391        4.03217686760697
H            9.04012930300693        0.25796525423765        2.90538917669578
H            8.80209418362121        1.59572980510744        4.01024188604204
H            8.48445530020530        1.72648868232018        0.96312659502655
H            9.78993166450187        2.44382171789709        1.87660831909966
H            8.03265430778054        4.16166562198650        1.27655410226366
H            8.18901128721651        3.98797018396679        3.01149971526024
H            6.00350166126270        2.68412539366942        1.29660030260792
H            5.78084104837766        3.99217022809370        2.44154350715065
H            2.77082105622760        5.06715166943244        1.74299417000765
H            1.65598715709887        3.76317899688004        0.00175751362979
