107
 energy: -19.144891742152 gnorm: 0.000203896674 xtb: 6.6.1 (8d0f1dd)
C            2.46804161034847       -0.68720780725125        0.15327552572762
C            3.92742820475286       -0.40083388713563       -0.25064053504679
C            4.80401543355808       -0.31279051253193        1.01164878903309
C            4.42533101418963       -1.57567477961616       -1.11461333938145
C            4.00097709538778        0.93397044173644       -1.00882756786321
C            4.54131738611809        1.03970928988312       -2.28515548340613
C            4.56977318074836        2.24635209689059       -2.94897315186935
C            4.05871110224451        3.39705988263919       -2.35671737219567
C            3.93181916010962        4.65981503247860       -3.12758081615982
C            4.70345101889219        5.82383678333320       -2.84789509064095
C            4.43488748757478        6.88720122200315       -3.66292933168619
C            5.06827002638598        8.18216027545948       -3.60334944567552
C            6.28280375963543        8.45877591184037       -3.03329918442664
C            6.66682389208703        9.81379033964248       -3.12799615769992
C            5.74457773202011       10.61261492016474       -3.75089568503578
C            5.86013250545670       12.03506531503551       -3.96144898098919
C            7.01865378434864       12.75950903086032       -3.94400373734244
C            6.84173209151858       14.15562656027516       -4.16451128500804
C            7.96637198523689       15.12562332752194       -4.17019402815094
C            8.12054575319463       16.04394852198523       -3.13677355323942
C            9.08021234677359       17.02872365609127       -3.20933176832235
C            9.91719855297394       17.14063155153407       -4.31222885481347
C           10.95940211137661       18.26892100511635       -4.36508328151304
C           10.24728723729263       19.63128142901114       -4.26520482928775
C           11.93907295600774       18.10919365789795       -3.18821998349900
C           11.76579860377310       18.24127954389872       -5.67818040692303
C            9.77141135441784       16.21056745980204       -5.33471683399141
C            8.81844056152396       15.21875996689224       -5.26636437325981
C            5.51787379068563       14.50548134762153       -4.34622978477727
C            4.98075772122158       15.85274602855365       -4.56332057136936
O            3.85225483547477       16.14097573749323       -4.18802465252715
N            5.78636168511214       16.79638793463123       -5.18257942918861
C            5.46596600993542       18.21703955947646       -5.08801671757177
C            5.49834298856745       18.68003450418762       -3.61802921161893
C            5.19415932063271       20.18199374498142       -3.48765061846918
C            6.16399376091643       21.01593540562763       -4.34536762693305
C            6.11822957847069       20.56962078909899       -5.81897805685143
C            6.41991638581994       19.06615808193002       -5.95225594149838
S            4.51281482085897       13.09734791390969       -4.26531749518275
S            4.38292925524764        9.64692244963815       -4.25699327364983
S            3.20011807647768        6.44505207112529       -4.81024612474374
C            3.06166364918413        4.83533528116998       -4.18614633105751
C            2.14333964841777        3.84040025305704       -4.75022217909965
O            1.82862803696982        3.88378595052299       -5.93185463494927
N            1.66076041808564        2.84027734215048       -3.91973084305794
C            1.07239722306538        1.62361294755230       -4.47476556801788
C            2.05950096836616        0.93327154935055       -5.43753473660788
C            1.48302646126227       -0.37478428638958       -6.00577354912940
C            1.06509684311750       -1.33044566187181       -4.87268774984298
C            0.05927688575451       -0.65054935750562       -3.92520269856563
C            0.63781275725076        0.65604707659413       -3.35477942444377
C            3.54568680697251        3.30106728204538       -1.06692690307055
C            3.51871231379571        2.09111265013399       -0.41076088820737
H            2.39179097986450       -1.63220591848408        0.69024134056479
H            1.82809115972326       -0.74993112111227       -0.72565613285251
H            2.07262536882776        0.09387351872792        0.80065791400943
H            4.78401350489024       -1.25007566994629        1.56687199925235
H            4.45837714980552        0.47694377444359        1.67730948350005
H            5.83902700752572       -0.09843195352957        0.74743850199054
H            4.34428916646974       -2.51637331736530       -0.57065640457334
H            5.47108099737377       -1.44538690803606       -1.39074779735698
H            3.83466611689289       -1.66918599256483       -2.02554249002675
H            4.93224522033096        0.16658361572437       -2.77619949097707
H            4.95857817094051        2.30848284908081       -3.95095567239769
H            5.42958973111276        5.85776647075236       -2.05226003728091
H            6.89672866990838        7.70238493162038       -2.56940339443269
H            7.59214460821736       10.19437399839484       -2.72408681327134
H            7.98853258245804       12.31951207892796       -3.77914806397213
H            7.45723104490590       15.98938846874922       -2.29062919932489
H            9.17564607322084       17.73276825016507       -2.40114070485688
H            9.67920188564256       19.71650570020525       -3.34009268847401
H            9.55758939693201       19.76766865448131       -5.09697688595415
H           10.96683798472539       20.44906205603029       -4.29021851521004
H           11.42284848546288       18.17764917260214       -2.23176359737156
H           12.70463952745932       18.88419363871454       -3.21017754878650
H           12.43737799172784       17.14123884382015       -3.23137958396993
H           11.11228613480887       18.35984137970940       -6.54195851014854
H           12.31359049008973       17.30540310986808       -5.78327905073813
H           12.49309513482846       19.05233999376388       -5.70199002978720
H           10.40550247056748       16.26300596264331       -6.20171031208301
H            8.69998786833910       14.52021504202739       -6.07711755058346
H            6.77396018843067       16.60159208704173       -5.33741764975865
H            4.43897326762063       18.32916210256637       -5.46896057769350
H            6.48964929794261       18.46235943980099       -3.20710495380691
H            4.79593473094032       18.07520870918630       -3.02974402481543
H            5.23310313596933       20.49677547933473       -2.43558488129222
H            4.16405567052745       20.37225818895539       -3.81276861590392
H            7.18396505732039       20.89394660354597       -3.96075119601898
H            5.94241238404102       22.08834351492079       -4.25449790564106
H            6.81610960506393       21.16156743196840       -6.42722749386870
H            5.12266386248516       20.77695967463259       -6.22997837681666
H            7.44782671209291       18.86321779503282       -5.63479406247076
H            6.36650850037907       18.73903470590255       -6.99818021150723
H            2.03455886182545        2.73241901764421       -2.97869320126911
H            0.18526890773361        1.93802174818283       -5.04578315318743
H            2.98770033109715        0.72781223368282       -4.89433329863413
H            2.33578012745959        1.63146679433285       -6.23849419411777
H            2.20523051772056       -0.85826225494471       -6.67814775111358
H            0.61034580308290       -0.14502506829678       -6.62916634507363
H            1.95444325974632       -1.62813220321671       -4.30350956354589
H            0.65086394153439       -2.26313428433305       -5.27997396123548
H           -0.23672232630586       -1.33182115837563       -3.11542910080841
H           -0.86387767247569       -0.42865456157388       -4.47436123731431
H            1.51310823084914        0.43267044513016       -2.73610714827109
H           -0.07659105933894        1.15264354656678       -2.68636105133308
H            3.13823628175132        4.18255351183826       -0.60196813611777
H            3.10898926987874        2.03986904042688        0.58300509989078
