101
 energy: -16.867094945682 gnorm: 0.000288810557 xtb: 6.6.1 (8d0f1dd)
C            1.04990449316361       -0.79131133230067        3.72739787615687
C            1.82556368173998       -0.56489079445537        2.41492566213053
C            3.05099796549029       -1.50075906021709        2.40835796391092
C            0.93033122948756       -0.92728416802584        1.21403109603175
C            2.23707800772953        0.91379069215902        2.31321724289618
C            3.56227900415460        1.31657402325229        2.20601408831476
C            3.89675742165005        2.64798430723744        2.10692724588106
C            2.91632455409317        3.63496223202772        2.10326266839950
C            3.27115647844340        5.06558648971274        1.96636678191370
C            2.73234038362342        6.07808938488290        2.80388170653341
C            3.21441586022508        7.33954253366025        2.55819826445336
C            2.86102627494240        8.54821943618375        3.23345941594850
C            2.03741166851726        8.67730877921477        4.33196962782713
C            1.88125707415886        9.99573728689725        4.78006966390384
C            2.57067978465011       10.93046421511362        4.03651042199518
C            2.59904022546344       12.34420647959552        4.24212856217547
C            2.01685308933352       13.04624661117588        5.26739914761957
C            2.21419747515975       14.45157453559853        5.20868512213646
C            1.63583700156842       15.38053266606127        6.20893400605116
C            0.76983015432762       16.39943150283121        5.82643502814358
C            0.25110270488694       17.26928953660703        6.75825594478667
C            0.57304822545060       17.16254107312298        8.10487956354844
C           -0.03706637864319       18.14675040702060        9.11761467272938
C            0.32926806102246       19.58869082617773        8.71580066854482
C           -1.56904592433207       17.98227451839799        9.12381104577679
C            0.48592485877508       17.89598934749197       10.54689264804420
C            1.43592512828598       16.14143107404603        8.48300263937804
C            1.95613705833440       15.26592634921635        7.55701722366386
C            2.97700155184839       14.83741569108362        4.11755721360127
C            3.41698755221908       16.17339369964699        3.72574769103613
O            3.77266611987471       16.38329291604031        2.57491509533694
N            3.45390338791518       17.19038184889307        4.65976687965167
C            4.05158963921304       18.47369788345642        4.32587735355099
C            3.11168339570036       19.38369417656563        3.59945445381720
C            2.63224138490262       19.02612836622985        2.35125536103957
C            1.78412385679990       19.85715121864370        1.65286952590243
C            1.40071225858557       21.06214347856025        2.19998072501991
C            1.86444178853551       21.42919247883776        3.44506134958437
C            2.71335749145540       20.59495084371492        4.14162833633116
S            3.40686788496763       13.45747336890919        3.17776226240602
S            3.43474089189890       10.12110213966680        2.76239791657767
S            4.36928564419260        7.26650326974861        1.25990738035986
C            4.18078195467280        5.56605492328500        1.04845713211330
C            4.92397170135780        4.84440329083052        0.01690681222015
O            6.03114462932839        5.23229886442958       -0.32729074951939
N            4.36088192317106        3.73089100061057       -0.57250529544097
C            5.05666828717509        3.02597087981096       -1.63486108917390
C            6.09115834872395        2.08043682426097       -1.11167261205073
C            5.96950991247481        0.71022527185397       -1.27566476790371
C            6.93903550867775       -0.14176303940895       -0.79009025986735
C            8.03872200201767        0.36477300792961       -0.13114693070001
C            8.16641820276346        1.72520498884805        0.04602605217600
C            7.19620416774256        2.57380871034589       -0.43986943320232
C            1.58996178078346        3.23513872580953        2.21945593381405
C            1.26194922213489        1.90220886446495        2.31981259612598
H            0.76267504503630       -1.83632387980302        3.83592819021397
H            0.14061413798573       -0.19402486565348        3.76024645681539
H            1.65980638873621       -0.51954182752665        4.58772598887412
H            2.74234077723736       -2.54254602097877        2.48459605524781
H            3.70934659312596       -1.29157439188546        3.25021719759360
H            3.62148558189379       -1.39497218139969        1.48685956894733
H            0.63603975795912       -1.97537177397600        1.24815336821834
H            1.45576273005928       -0.75604994851371        0.27566646560176
H            0.02139946958254       -0.32851633489421        1.20127772201705
H            4.34764042332719        0.58261693349526        2.19641148485520
H            4.92849280447673        2.94115772091223        2.01692113624841
H            2.01277626622556        5.86456498877543        3.57684725982481
H            1.56187798933714        7.83445914197118        4.80871716730172
H            1.26856282656962       10.25912609258702        5.62805147358995
H            1.44664968700128       12.57786692673202        6.05255996892504
H            0.51457806282758       16.50108867560285        4.78572571650503
H           -0.42017453100428       18.04553457190107        6.43591288112597
H           -0.06994974070337       19.84244377430801        7.73562062251197
H            1.41023337550457       19.71603364566111        8.68090341448668
H           -0.07036701245099       20.30621013682636        9.43114863948382
H           -1.99466591974258       18.19756265138101        8.14536394829366
H           -2.03183740585985       18.65632234325350        9.84332991496660
H           -1.84632178195114       16.96366989508095        9.39142124230203
H            1.56853982175551       18.00425311393624       10.59383862778687
H            0.22160390201921       16.89821567762958       10.89390050064701
H            0.05442977198517       18.60968381699288       11.24753372897105
H            1.70756753693182       16.02403492094191        9.51652806157651
H            2.62896260016177       14.48507306389531        7.86702983625026
H            3.26860389248127       17.00601521851305        5.64752371997147
H            4.92120665659124       18.27146598001987        3.68995044411469
H            4.43434091539067       18.95750995557332        5.23053177226059
H            2.93564228154681       18.07973992918256        1.93655095264206
H            1.42662965477597       19.56734703602872        0.67792920572591
H            0.74416312192279       21.71911380820558        1.65255845338389
H            1.57067793920681       22.37513304573558        3.87034928820733
H            3.08257655231786       20.88717948985703        5.10956230785864
H            3.41454179648166        3.42308122082084       -0.33825034417841
H            5.54034428428502        3.78185944111046       -2.26435680041818
H            4.33774138472554        2.50192706648697       -2.27322832505503
H            5.11509492455460        0.31488343545419       -1.79742416541702
H            6.84325634531711       -1.20527301760977       -0.93684505767322
H            8.80101121408439       -0.30159923156664        0.23910028161124
H            9.02622205596439        2.12584401151578        0.55829012871012
H            7.27889427126774        3.63843230464907       -0.29880037366671
H            0.81680597942509        3.98371962605189        2.21355509239284
H            0.22668152081168        1.62103116697586        2.40036184854691
