74
 energy: -12.662479372730 gnorm: 0.000691773530 xtb: 6.6.1 (8d0f1dd)
C            0.18083213262801        0.86129292894823       -2.03802930040592
C            1.53403845269578        1.14996934348286       -1.36179356830935
C            2.02078728178269        2.53923153918982       -1.81963153498188
C            1.35415465866433        1.18112290854211        0.16784324561017
C            2.53271438707875        0.04295412412163       -1.73676681668361
C            2.27655149889826       -1.27078487019573       -1.36825157505743
C            3.14302123523643       -2.29005877931985       -1.69588975247665
C            4.30595905387649       -2.03328323495885       -2.41429688511349
C            5.23586752180447       -3.12461527429328       -2.78473148220446
C            5.74530377284575       -3.21565397563315       -4.07527954508638
C            6.61518339556853       -4.22371740034492       -4.44379452182654
C            7.02950825035304       -5.16484801271427       -3.48797373262194
C            6.46534014183801       -5.12806403197000       -2.20281835688534
C            5.59353319083553       -4.10865505859968       -1.86958154715074
C            6.71517548173447       -6.23491062136954       -1.21650149274352
C            8.02951500707785       -7.00264668767148       -1.44076235529941
C            8.43467132811356       -7.13431896732252       -2.88255558876179
C            9.31080561711148       -8.13828760072348       -3.24949076193531
C            9.81023309569403       -8.23502049187519       -4.54371123794257
C           10.74222217200051       -9.31991800159500       -4.92714790390417
C           10.58880315291022      -10.00007864125792       -6.13045640825293
C           11.46025267054179      -11.00345324372222       -6.49095167160417
C           12.52290648902067      -11.36509728623086       -5.67413896048062
C           13.47247306349016      -12.49231978955067       -6.11224250301519
C           12.68540726423375      -13.81306669755840       -6.19397470231984
C           14.06654215174361      -12.15615322095059       -7.49362960497275
C           14.63656429027482      -12.67685753432273       -5.11933589646311
C           12.67210144432792      -10.68744657501621       -4.47054603965361
C           11.80097297433676       -9.68571701537090       -4.10231966995094
C            9.43959154858916       -7.25917381411374       -5.46226740543915
C            8.56932685036628       -6.23947637602440       -5.12825669753761
C            8.01205481772834       -6.19872070289636       -3.84031845422625
C            8.32188292721100       -5.13378891959298       -6.11634165709041
C            7.01517975256484       -4.35604849412154       -5.88695851732054
C            4.56473185378586       -0.71819333683686       -2.78584198240385
C            3.69575863260152        0.29717567242891       -2.45252111230827
H           -0.54541277803268        1.63894280652385       -1.80526454776501
H           -0.23198428810268       -0.08985627757447       -1.70624247006724
H            0.29340549299076        0.81825384044382       -3.12054625684872
H            1.30643332929775        3.31134854360161       -1.53662617163046
H            2.13458552275450        2.57937090884934       -2.90207209955235
H            2.97596407639825        2.79103766506340       -1.36085834620923
H            0.66874824823316        1.97447571880673        0.46334079310392
H            2.30761400361524        1.35815193520007        0.66362491161559
H            0.95241602289655        0.24066982322811        0.54065635486578
H            1.37953665185808       -1.49853459826598       -0.81962140397189
H            2.91755834699602       -3.30326799166196       -1.41182224627232
H            5.42730663847813       -2.50035491358065       -4.81234720436616
H            5.17520203270528       -4.07760695682184       -0.87967342615288
H            5.87041156881771       -6.93188061723481       -1.26852361776280
H            6.68881266330114       -5.82024134329967       -0.20126350365638
H            7.96233168165749       -8.00371663296328       -0.99724594639390
H            8.84330959891600       -6.50060188373281       -0.90436252930699
H            9.61991765509142       -8.86053020434499       -2.51553191703868
H            9.76771593824431       -9.74021207219800       -6.77596931389618
H           11.31191835945991      -11.51985361583178       -7.42296621905743
H           11.87231448513289      -13.74407528304898       -6.91465288890049
H           12.25298553430112      -14.06416209114498       -5.22640414432958
H           13.33268573856763      -14.63476749997193       -6.49784088658818
H           13.29096396249958      -12.08218308873582       -8.25373189959930
H           14.76965191549575      -12.92427074375315       -7.81309546926646
H           14.59718650959501      -11.20561308487785       -7.46269673710783
H           14.27187945963654      -12.95912258388243       -4.13286461109656
H           15.21843923923689      -11.76096924442890       -5.02505274102710
H           15.31074385209353      -13.46303198935041       -5.45640914755386
H           13.48070945321072      -10.94089959611840       -3.80885868031502
H           11.94212963939811       -9.16368100157485       -3.17179687374694
H            9.86728655185042       -7.28290281019202       -6.44847308452068
H            8.33975817600157       -5.55161089664383       -7.13047326251198
H            9.17212563791187       -4.44304547044850       -6.07106942234416
H            6.19571441935660       -4.85140744675032       -6.42099440496503
H            7.08861138927434       -3.35516494981377       -6.32976431163679
H            5.46502122776218       -0.49966605456988       -3.33362767258174
H            3.92922448352182        1.30183784045560       -2.75558260476559
