67
 energy: -12.467729767059 gnorm: 0.000850540780 xtb: 6.6.1 (8d0f1dd)
C            1.01597846353241       -0.17819319514933        0.29987479578590
C            2.54574650368729       -0.21256644396165        0.12299992108784
C            3.19600202291181        0.30584090209363        1.42098864755083
C            3.00992116413416       -1.66294659016411       -0.10750763850762
C            2.93696638042901        0.64392916964358       -1.09194165529738
C            2.43432737217604        0.33320709872655       -2.34740776662708
C            2.76475363852121        1.07368579155470       -3.46013589003481
C            3.62074445245088        2.17145035740784       -3.37068627142900
C            3.97611133925612        2.98464416547663       -4.54328707123149
C            3.32830992831565        2.83956308243978       -5.76362322992757
C            3.64676294877213        3.59539365361068       -6.88316285406201
C            4.64014080455571        4.56831604930292       -6.88265938915238
C            4.96028168359449        5.35222835599820       -8.07728029523786
C            4.15728525249022        5.32238462188133       -9.22516059026064
C            4.47863459102023        6.05420185952122      -10.33905855397336
C            5.62174117388846        6.85541332800880      -10.37233814899273
N            5.95698387007981        7.61504104499930      -11.52904668546792
C            4.93066820232655        8.10889557912818      -12.40041358914851
C            5.12523632832316        8.14323409795178      -13.77999751668521
C            4.14766555520532        8.63080349302416      -14.61545490832731
C            2.95818425364569        9.09646222339223      -14.09184451535757
C            2.75028914660694        9.07339371175785      -12.72730137232824
C            3.72507791298891        8.58558839863862      -11.88864901086229
C            7.32849684941670        7.91033909039379      -11.82832341602656
C            7.69384692857464        9.15579698188305      -12.33607247572504
C            9.00838010315871        9.43794829863203      -12.62555086500194
C            9.98373469179045        8.48302155759284      -12.41793128342061
C            9.63880135657024        7.24249058896764      -11.91990517249109
C            8.32552107505791        6.95706120810051      -11.62786193131370
C            6.42433192032813        6.89424464765007       -9.23154329166245
C            6.09561956974172        6.16788326753750       -8.11924357435437
C            5.34226974905729        4.76023186013230       -5.64973571591473
N            6.32728774361572        5.62125994176533       -5.41358938259606
S            6.79534283369264        5.46744659982362       -3.85869370263690
N            5.75276330484667        4.29033962715398       -3.42735548413917
C            5.00522866348031        3.97521485343497       -4.48166869024089
C            4.12824392796585        2.46887701498673       -2.10819988873945
C            3.79511399602955        1.73012077801175       -0.99747780486444
H            0.71046951830096       -0.76128140628832        1.16752231967875
H            0.50626416387176       -0.58707631443701       -0.57067708637242
H            0.66783549570033        0.84394360124037        0.44152363496153
H            2.90595628715087       -0.31009598641452        2.27132795264782
H            2.88541376605620        1.32772731362851        1.63441390365314
H            4.28262669707963        0.28021471790536        1.35352911264752
H            2.76362586646644       -2.29216008332551        0.74662908898459
H            4.08814204124119       -1.70292409181312       -0.25542059216885
H            2.53604137901277       -2.09583987507009       -0.98666924375886
H            1.77329560562679       -0.50885814617795       -2.45456036656839
H            2.36498972473335        0.78336038292281       -4.41413276448556
H            2.53386963993143        2.12144424595537       -5.84923541815915
H            3.10779857001013        3.40204648765574       -7.79223463093126
H            3.26255775130893        4.72765494935247       -9.23545044046117
H            3.85694181795030        6.00499059476436      -11.21559094547619
H            6.05091690443536        7.77182934249974      -14.18312140626013
H            4.30954558970625        8.64899631445596      -15.68063450995928
H            2.19373272121006        9.47981482082637      -14.74762932432601
H            1.82434254362662        9.44307223358656      -12.31859328273072
H            3.57640261421379        8.58563332951223      -10.82318941094362
H            6.93114127815952        9.89954279854102      -12.48639814903036
H            9.27821432350797       10.40664196792112      -13.01303557394431
H           11.01329176375997        8.70526973927546      -12.64567187973769
H           10.39963825587272        6.49555505537501      -11.76313382795493
H            8.04902475949936        5.98589766506850      -11.25688884293860
H            7.29538816074935        7.52541650713312       -9.22986000655810
H            6.71957111733905        6.23000921680513       -7.24928377566559
H            4.80393521986541        3.29552400083485       -2.00523382210102
H            4.21420072137508        2.00261354691662       -0.04586444443280
