46
 energy: -6.877760639851 gnorm: 0.000415301195 xtb: 6.6.1 (8d0f1dd)
C            1.10353143020383        0.41863153852428       -0.25209695232790
C            2.59294650352642        0.13998991623594        0.02926543755802
C            3.41758049823807        1.31819202631241       -0.52717328845960
C            2.82750162266121        0.05525309816807        1.54930018127845
C            2.99624483461819       -1.19510662242378       -0.61882238295075
C            2.31603534110665       -2.35800637293061       -0.28399284088126
C            2.65568781300499       -3.57244938608554       -0.83760122303924
C            3.70082590101769       -3.67158096022672       -1.74833323927028
C            4.07803031409030       -4.97719215847408       -2.34093616115824
C            3.12610070631497       -5.79657868295480       -2.93601254744689
C            3.48439869032920       -7.00528306064240       -3.49048116991570
C            4.79926221577892       -7.45017191873928       -3.46777440848059
C            5.16264077117185       -8.79800516205622       -4.11315110355896
C            4.28946393807809       -9.91420399753218       -3.50671236651100
C            4.91503657302247       -8.71192202294515       -5.63081588418360
C            6.64199590717815       -9.16407144321324       -3.87747761628598
C            5.74799582178347       -6.62762143358724       -2.87414412986799
C            5.39688864307116       -5.41566803409831       -2.32186455702864
C            4.38765081768136       -2.51041624009196       -2.08292580172805
C            4.04030165813389       -1.29813555383406       -1.52892565026046
H            0.79875074506213        1.37433557421997        0.17217077903773
H            0.46578567544933       -0.35152712456521        0.17780551326331
H            0.91327500676798        0.45080194113187       -1.32396488729324
H            3.10750163409223        2.25711766982372       -0.07037104086403
H            3.28389623405087        1.41667390138406       -1.60353054045246
H            4.47875880154478        1.18898965471962       -0.31966478023020
H            2.56272245206513        0.99169189997679        2.03836891458947
H            3.87411513272528       -0.15366845588804        1.76653504269095
H            2.22938622272856       -0.73560591289937        1.99863180644736
H            1.50990252965145       -2.31188440714154        0.42694215150432
H            2.11987243335392       -4.46305832635912       -0.55844407756523
H            2.10182316069798       -5.46799058368008       -2.96988071570568
H            2.72911175671077       -7.61285611059959       -3.95713745397243
H            3.23212400269763       -9.74469847134090       -3.70099638313280
H            4.42741033479871       -9.96812198792703       -2.42776337101671
H            4.54968713315514      -10.88445230468256       -3.92762090990784
H            3.86940282139279       -8.50152434217007       -5.84888423845814
H            5.17701647234459       -9.64715494482389       -6.12361752577401
H            5.51440217564790       -7.91812871783648       -6.07449554593006
H            6.86737191257284       -9.21824559736057       -2.81335584712604
H            7.30693041552263       -8.43390331737241       -4.33623550219875
H            6.87436047171355      -10.13514451973650       -4.31266494655842
H            6.77816376124379       -6.93341916836622       -2.84061031869696
H            6.14520823625272       -4.79618924887232       -1.85861427768647
H            5.19516728319288       -2.56865660037759       -2.79203381320598
H            4.59477319355279       -0.42152402866203       -1.81183232723891
