28
 energy: -6.103245317822 gnorm: 0.000819127149 xtb: 6.6.1 (8d0f1dd)
C            1.06467081990517       -0.00055341327421       -0.55724324475969
C            2.26784769483203       -0.00151646480568       -0.39459624336728
C            3.66713443134379       -0.00247753505470       -0.19364502067398
C            4.37257916139270       -1.22291211103892       -0.08582387582796
C            5.71786318406253       -1.24489177621106        0.10757268218461
C            6.45287070641034       -0.04033072391540        0.20728393208689
C            7.84102284317011       -0.02502125822144        0.41113312715784
C            8.54447727251868        1.15857035714339        0.51208852482348
C            9.97225254067889        1.19974387521921        0.72147268563253
C           10.76432290050577       -0.05350821328348        0.84825883771129
C           10.57263797959090        2.39755178817101        0.80962960574063
C            9.84787281307880        3.64860658132788        0.70122087790631
O           10.48019414675455        4.68992624832357        0.79442418735258
O            8.48662140141904        3.62043540745334        0.50012011548233
C            7.84433311116134        2.39576406111724        0.40676252370121
C            6.47873302646684        2.38755288477798        0.20421501631851
C            5.75843318244762        1.19187289665433        0.10167188868378
C            4.35927195287200        1.17523086720677       -0.10030958360547
H            0.00755881473343        0.00192871297670       -0.69548912718610
H            3.81987573524638       -2.14361841318885       -0.15973940737417
H            6.24079601283363       -2.18194199923049        0.18767739026543
H            8.36018393198216       -0.96188764196098        0.49238493844054
H           10.64319911541263       -0.68193195539531       -0.03457992703266
H           10.45031761104884       -0.62570060958723        1.72180186488715
H           11.82831913083780        0.15897116716298        0.95692148295834
H           11.63296777969519        2.46097841793540        0.96751439237546
H            5.96911626167408        3.32983970067342        0.12796259441513
H            3.82885643792512        2.10665914902256       -0.18302023829324
