47
 energy: -9.414132906437 gnorm: 0.000977130732 xtb: 6.6.1 (8d0f1dd)
C            1.15909668184315        0.38072535283360       -0.70605810600215
C            2.60432116873918        0.15413604673258       -0.22673925093020
C            2.75306583375971       -1.31821117900284        0.20061570819119
C            3.58321055876663        0.42167917969038       -1.38500729271771
C            2.90353521492875        1.11736197251705        0.93201863097040
C            3.16826233598079        0.67520280931660        2.22375257828355
C            3.38848792632446        1.56453713952182        3.25171029331614
C            3.34217879461767        2.93868253846658        3.02660162889847
C            3.52285143737619        3.89714633361190        4.12349128061117
C            4.56815177787040        3.91028512306609        5.04915444372597
N            4.49607570573658        4.96504988240983        5.84815961472091
C            3.40019444921981        5.64328892462259        5.46860515749090
C            2.91864059883780        6.85753153708704        5.98744702492688
C            1.78378882832571        7.39197586960892        5.45824547372650
C            1.08812190989525        6.72980668334444        4.43599733558497
C            1.52474676422158        5.53328842233138        3.92619207032864
C            0.72099466077573        4.79725729382638        2.93422166608855
C            0.32515738536942        3.48240089371952        3.18068415436704
C           -0.40201483804428        2.77883350085787        2.24680461982592
C           -0.75558675899824        3.37554220810808        1.05286274459034
C           -0.38455590954782        4.68140592135512        0.79756676581091
C            0.34280269331102        5.38911690835435        1.72875165939301
N            2.73208210386615        5.00199510751523        4.41719811625984
C            3.10375815866147        3.38243020189593        1.72838297246668
C            2.88240714253067        2.48812345382898        0.70686200627132
H            0.90830401809625       -0.29432078692826       -1.52391424312255
H            1.01603412010710        1.40112799498011       -1.05884602178377
H            0.45293400745255        0.20608212138530        0.10505594089870
H            2.55657999989596       -1.98561702308908       -0.63842872536367
H            2.04902223001019       -1.57071921664386        0.99277829094475
H            3.76236988883169       -1.52324052210175        0.55595476366198
H            3.41083292312917       -0.27048854601298       -2.20889645702504
H            4.61376878756351        0.30091641624879       -1.05271622329644
H            3.47291158113854        1.43252034007686       -1.77428930631654
H            3.19529562179887       -0.37912290824265        2.43368592137077
H            3.57652717685187        1.20730926033398        4.24960592911529
H            5.36513918071802        3.18335156182735        5.09429918218153
H            3.45745504742447        7.34325952068949        6.78116975703381
H            1.40332312625974        8.32544346638759        5.83962604557240
H            0.16815702373326        7.14569330662082        4.06320779907578
H            0.61230697146728        3.02033782925860        4.10946440173889
H           -0.68911212206070        1.75915008503123        2.44545173406272
H           -1.32069594217646        2.82263024926940        0.32031164738743
H           -0.66162195658289        5.14629481467093       -0.13447840980530
H            0.64426133490615        6.40286329543846        1.52811116524545
H            3.07687159986765        4.44180836926852        1.53986652546530
H            2.67139075719786        2.85846824591040       -0.28111101324839
