94
 energy: -19.862791321890 gnorm: 0.000815271641 xtb: 6.6.1 (8d0f1dd)
C            3.35579118611405       -0.71135055441992        1.08506525693340
C            4.79749370188554       -0.78883413940221        0.54923781242572
C            5.74126782040204       -0.18611602816953        1.60779164566521
C            5.19071129953331       -2.26110008888030        0.32860416031844
C            4.88448503876330       -0.03539608216894       -0.78703609536802
C            4.08811140582305       -0.43382666042761       -1.85337259859656
C            4.13652594204260        0.21941324848454       -3.06376732601655
C            4.98885295430004        1.29944368994813       -3.25322081429686
C            5.02951396205288        2.00578447690336       -4.54095909208579
N            5.86649663089757        3.02389980955634       -4.65384247774261
C            5.84570752302438        3.62755791648059       -5.83066029878005
C            6.75412125429871        4.76538020988845       -6.02726970278952
C            6.80348056501508        5.43036533086727       -7.24565075856502
C            7.65461971239412        6.49600023565717       -7.43376892946294
C            8.48785622427238        6.93763900216943       -6.41250269738019
C            9.45023510078075        8.12264874384827       -6.58712005602742
C            9.37520032575758        8.71554394526770       -8.00761306898586
C            9.08374960817615        9.22762701414348       -5.57932679950787
C           10.89347957745573        7.64803023138417       -6.33556042306888
C            8.43259316074412        6.26975594826111       -5.19530101888030
C            7.58373633337367        5.20312704627578       -5.00334088088702
N            5.06800357633665        3.29488742950858       -6.84661731304619
C            4.27512652331858        2.26170382588063       -6.61933485487579
C            3.37075164793788        1.85779831209382       -7.70056534542315
C            3.29681259215939        2.59738003044142       -8.87363708016605
C            2.42562597773829        2.25308995412882       -9.88919494229680
C            2.38173078434780        3.03535873970539      -11.05077711567533
N            2.33628567339291        3.69661686447636      -12.00471757140149
C            1.59728299580089        1.12607719758532       -9.73806872575155
N            0.65608606153499        0.77632643170883      -10.76587470109029
C            0.60626441523023       -0.44113936475769      -11.47676245526459
C            1.41989150656472       -1.57123211359698      -11.42472623788726
C            1.12786128856249       -2.63270409686120      -12.24540171510882
C            0.03980406944104       -2.59025645878119      -13.12305533861592
C           -0.77049207419541       -1.48410935689354      -13.18926343871748
C           -0.48402864839290       -0.40048141308418      -12.36005032285799
C           -1.12287053758508        0.86942112789638      -12.18475284972542
C           -2.26804732006091        1.44663105695070      -12.78297282846151
O           -3.13419703235100        0.96649667746538      -13.74227836328714
C           -4.08106298228807        1.95744021338479      -13.94301165590385
C           -5.18821615479014        1.99580571092785      -14.79749385888795
C           -5.98599752914723        3.10968268565750      -14.80997474296744
C           -5.71328273966224        4.20628490135826      -13.98481571370038
C           -4.63710111712085        4.19698928123511      -13.13629051718949
C           -3.81378056126864        3.06733358027941      -13.11118476903116
C           -2.64412384712390        2.73758570889213      -12.36079012144160
C           -1.91678946491771        3.44175207606823      -11.37590008838835
C           -0.81665773326698        2.86680802102017      -10.80520822341969
C           -0.41387652125948        1.57779838478174      -11.21038769171301
C            1.67599244034539        0.36362713392814       -8.55831594494073
C            0.86480867880406       -0.76232892736913       -8.36492275853615
N            0.20363318828538       -1.70420859629115       -8.20712001086684
C            2.55462763094666        0.74281929241034       -7.56155653091117
N            4.21644178148314        1.57592538273697       -5.49058625988656
C            5.79010427425498        1.70044573020480       -2.19216393152015
C            5.73788151690035        1.04466821670786       -0.98254161650477
H            3.26891473187932       -1.21932253723904        2.04490564580471
H            2.65164367190145       -1.17742550449636        0.39766907005512
H            3.05186688984294        0.32573986316866        1.22336272872818
H            5.66367216293049       -0.72989315298485        2.54862521966399
H            5.49171431106796        0.85524132521717        1.80810525792363
H            6.77956883401719       -0.23812026932595        1.28278633391267
H            5.15683961294665       -2.81819548606787        1.26409520748043
H            6.20146860501560       -2.33334951930423       -0.07095673752789
H            4.51765413722930       -2.74963333957780       -0.37418049027689
H            3.41964835072460       -1.26794272936258       -1.73083431645991
H            3.51229185155297       -0.09458422649271       -3.88201417204331
H            6.16222228450716        5.09471647115855       -8.04184142006229
H            7.66858957974857        6.98788164183994       -8.38971399179269
H            8.37444026123532        9.08608495543701       -8.22593107727432
H            9.64106247620333        7.97161983483230       -8.75758545870228
H           10.06570567119573        9.55142015388731       -8.11411803835789
H            8.05841049622727        9.56250690427075       -5.73206688480881
H            9.74039108936031       10.08974426115869       -5.69012134706232
H            9.17030844524643        8.87272367784067       -4.55352794898437
H           11.16141111658801        6.84936566146687       -7.02629502349960
H           11.01543848810103        7.26880666452876       -5.32225812646116
H           11.60156689093464        8.46445789533414       -6.47270509342433
H            9.06515710777474        6.59177830448686       -4.38675457683353
H            7.54921547597559        4.69216704330444       -4.05717175381834
H            3.92600838858853        3.46156295887305       -8.98600202244028
H            2.24821482944599       -1.59933666862261      -10.73936450112556
H            1.74432390239200       -3.51568385249519      -12.20958636149251
H           -0.16622606493650       -3.43917245544335      -13.75380792118424
H           -1.61406748406611       -1.43331474314263      -13.85491145995731
H           -5.39191606683882        1.14927857561089      -15.42793532642465
H           -6.83918388850315        3.14407377851226      -15.46734195537459
H           -6.35849478407479        5.06845660839921      -14.01791143967385
H           -4.41762016642385        5.03428426854568      -12.49787958972546
H           -2.23756718558776        4.42662244033506      -11.08664042802166
H           -0.24273063710134        3.38401640141444      -10.05748246180531
H            2.60455187259659        0.16932378763978       -6.65386092043146
H            6.45092385557033        2.53755809969015       -2.33395023866417
H            6.36999919942954        1.38139597179819       -0.18064858123202
