93
 energy: -19.365852368819 gnorm: 0.000464413335 xtb: 6.6.1 (8d0f1dd)
C            1.97702195461964       -1.21533368110019        2.07269254122739
C            3.46291920631867       -1.55579644503555        1.84646633560836
C            4.28611493220433       -0.26457575937138        2.00869485034189
C            3.89318302575778       -2.58294903314058        2.90968214719248
C            3.70697231130462       -2.14113238842473        0.44689901629303
C            2.68097924297395       -2.33074012357841       -0.47178145052153
C            2.93258363147793       -2.85326047132095       -1.72040612667331
C            4.22192012438607       -3.20656746843061       -2.09743165758037
C            4.48671214543188       -3.75557750890311       -3.43428051591725
N            5.73767581995203       -4.06221496107755       -3.73435447059386
C            5.91119065300942       -4.54030935535846       -4.95569051437454
C            7.27692266874858       -4.91779639196448       -5.34530385585859
C            7.54035652959584       -5.42908940801162       -6.60960327980245
C            8.81762983208812       -5.79655792241712       -6.96961302185477
C            9.87920195995610       -5.66785813134935       -6.08116925386167
C           11.31474946738830       -6.07762105263172       -6.44499494067010
C           11.40888737675553       -6.61153743633895       -7.88746473896160
C           12.24170580377649       -4.85452627706709       -6.31907914136666
C           11.78496816294768       -7.18614202101869       -5.48526647823995
C            9.60980648841220       -5.15407361905587       -4.81859448639262
C            8.33440797196324       -4.78503059992403       -4.45484266620568
N            4.95528141159332       -4.71204999497806       -5.85345880536541
C            3.74400657535088       -4.38073762255217       -5.43883561823908
C            2.62988867505270       -4.55890558688881       -6.37652372181175
C            2.85505230664941       -4.91592806231104       -7.70342862724014
C            1.80324996954054       -5.07901168734259       -8.56972152269645
C            0.49065526249108       -4.90323230786792       -8.14144058861345
N           -0.59344094381215       -5.08276660090624       -9.06728628951029
C           -1.65815394593905       -6.00032335900287       -8.94442966243610
C           -1.95509323577557       -6.94087988327238       -7.95923652980415
C           -3.07892685930788       -7.71654702813204       -8.10441184453573
C           -3.91521956236523       -7.57737419227512       -9.21702803906412
C           -3.63561440004877       -6.65975866395045      -10.19918092311143
C           -2.49665952931027       -5.86664337957918      -10.06276548129495
C           -1.93661745618561       -4.83996578410717      -10.88980241877839
C           -2.35780172753127       -4.27610338616946      -12.11749124715802
O           -3.44189774024298       -4.55579742690874      -12.92284685303029
C           -3.36065850469584       -3.68770431982385      -13.99953694767144
C           -4.20157982189252       -3.53472060171472      -15.10739036341711
C           -3.90247194871758       -2.58500931251054      -16.04861300073963
C           -2.77334891322738       -1.76799934508368      -15.92102103154763
C           -1.93083731435268       -1.89552511611174      -14.84749314524393
C           -2.22202046831415       -2.86035205889024      -13.87829735524023
C           -1.57304397293443       -3.24081729156363      -12.66358703245460
C           -0.40411075236557       -2.77338899352219      -12.02172508568696
C           -0.00950684283257       -3.33213114652245      -10.83829818880510
C           -0.77451764034784       -4.37107437351299      -10.26897494126811
C            0.24800081937417       -4.54375386359212       -6.80370059648512
C           -1.05290014015790       -4.34514196879351       -6.32244508031579
N           -2.12935616480358       -4.19655984558132       -5.91168448135148
C            1.32114356501840       -4.37421016037720       -5.94844677932251
N            3.45015081624989       -3.90296465085205       -4.24117889098843
C            5.25034226145111       -3.02174337398718       -1.18267094682567
C            4.99424089835620       -2.49924038838276        0.06510326602198
H            1.82326419405161       -0.79909060398042        3.06778896878540
H            1.35339840251282       -2.10458341768972        1.98830919618006
H            1.62924249157030       -0.47769889636418        1.35034751743841
H            4.11755262883709        0.18497278304899        2.98668444306282
H            4.00918543380671        0.46580652702847        1.24925376849665
H            5.35299164429242       -0.45966290627864        1.91172383659977
H            3.71282561964635       -2.20263282129514        3.91457757978010
H            4.95338917015561       -2.81745813301421        2.82782586574572
H            3.33524789040089       -3.51162441041394        2.79499215860952
H            1.67136252864214       -2.06721127675849       -0.21234425163078
H            2.13305703424897       -2.99469126688422       -2.42660388669055
H            6.72349902011327       -5.53623375712050       -7.30169079730164
H            8.98705742731447       -6.19086091158677       -7.95547361355368
H           11.09886620202852       -5.85443994812408       -8.60686554007848
H           10.78394227086076       -7.49385374461402       -8.02086784486842
H           12.43305669104689       -6.89471830363263       -8.12841917897950
H           11.90802474428361       -4.05015266672847       -6.97368569525717
H           13.26448247578662       -5.11068033145614       -6.59353072919607
H           12.25704127868102       -4.47187149763960       -5.29975189171100
H           11.12594665526142       -8.05160399219477       -5.54514717674433
H           11.78958107582738       -6.84042160475883       -4.45268138177739
H           12.79466542807607       -7.51291093636689       -5.73166721304388
H           10.41265953159856       -5.04537267277404       -4.11053221133555
H            8.13602115218233       -4.39134490639492       -3.47339475827181
H            3.86827655135505       -5.06049687505789       -8.03501567360900
H            1.97817999335323       -5.35885770189260       -9.59384729699477
H           -1.31380412078209       -7.03311269516290       -7.10090977042697
H           -3.32417618825318       -8.44146721686351       -7.34586622231954
H           -4.79216285264989       -8.19759832293390       -9.30242313600295
H           -4.26772944162463       -6.53606068055880      -11.06081985523141
H           -5.06803903435169       -4.16468383314502      -15.19799688475764
H           -4.54797747161019       -2.46311029329068      -16.90285906364979
H           -2.56525700969194       -1.02925037117151      -16.67728691989315
H           -1.06090125035698       -1.27235948636005      -14.73863310907084
H            0.16070157817833       -1.97686307665973      -12.47245487549255
H            0.86967338187225       -2.98609169401934      -10.32533389557692
H            1.14218371794353       -4.09371096547322       -4.92633578366316
H            6.25105556885129       -3.29373912635284       -1.46933225048976
H            5.80668160181084       -2.36520613249968        0.75771805521909
