115
 energy: -23.876835627768 gnorm: 0.000444893479 xtb: 6.6.1 (8d0f1dd)
C            6.58054833918620       -3.45025902699132        1.67332086218068
C            7.74337107139542       -2.45316869773439        1.51678871557805
C            8.44729088198472       -2.26113351944724        2.87296244416431
C            8.76068411339272       -3.04462135088279        0.52194653338008
C            7.19237034598524       -1.10246887241151        1.03382538374533
C            7.57712138345933       -0.52377206593345       -0.17010408448557
C            7.06493804121150        0.68833072802717       -0.57484209606183
C            6.14364949840192        1.37593477970959        0.20913839792733
C            5.57416017153640        2.66601394691721       -0.17213471565279
N            4.74652568162184        3.33183667599331        0.62116778933350
C            4.40954430423611        4.46380508371330       -0.03631838165072
C            3.51549290693819        5.50725985183428        0.38296500201690
C            2.87406074855900        5.44883102007265        1.62384684083087
C            2.00934718110933        6.43289604862635        2.00809099029572
C            1.74049095961900        7.52089122464181        1.16068813865441
C            0.78619969508551        8.58288592648569        1.56474454317845
C            1.22191519817091        9.92608696496685        1.69956827832664
C            2.57255538093656       10.30262605173695        1.48431807906531
C            2.97598673862193       11.59349313075774        1.62250672472127
C            2.05881345968723       12.59196469630329        1.98925588642301
C            0.75714881940009       12.27840599776673        2.21625578956147
C            0.29646180301159       10.94063780508700        2.08420935338021
C           -1.03271809117510       10.60481749025598        2.32926819249564
C           -1.48485582074804        9.29371520806014        2.20257844198962
C           -2.84318559774554        8.95330305020607        2.44462088825635
C           -3.27713539305577        7.67491929173933        2.29727944464985
C           -2.38715809316393        6.66464874186595        1.89722846048695
C           -1.07939100874243        6.95088307630121        1.66059907814497
C           -0.57440446484954        8.26766655845266        1.81291693127651
C            2.38359374578286        7.57978674708765       -0.07029124907295
C            3.28114940073691        6.59680689229991       -0.48758582458707
C            3.96539912386171        6.66004241024146       -1.78392133130590
C            3.79143548266986        7.73554226541606       -2.65437685205614
C            4.42634472832418        7.80193028663739       -3.88853631181086
C            4.21265582184802        8.96608437319919       -4.78297205947811
C            5.30225936576532        9.79298043101550       -5.15978979914637
C            6.62022904147636        9.55847782634889       -4.69085204782741
C            7.65280810389710       10.36496410660751       -5.05396612493174
C            7.43646932908880       11.46069543804419       -5.90541744551213
C            6.18986734093503       11.73291493702199       -6.37037161743998
C            5.08380307270412       10.91663306178422       -6.01033454429255
C            3.79680647166688       11.20148716188415       -6.45986368802320
C            2.71012542997394       10.40891538519695       -6.09865349213085
C            1.39719518772480       10.70136921291592       -6.55687129528794
C            0.34734212135237        9.91225921840627       -6.21132975223614
C            0.54412114318946        8.78620908248950       -5.39547347163372
C            1.78502008145455        8.47601410362530       -4.93477158826665
C            2.91147107270127        9.27605824602387       -5.25627656809179
C            5.27154218442239        6.74488354364055       -4.26346550827989
C            5.47092198163667        5.68397859801639       -3.42923339587336
C            4.83596249453255        5.61470570557768       -2.18243927786733
C            5.04127796669650        4.51528827864815       -1.28240022359422
N            5.79502928491968        3.35766953155763       -1.37620515346530
C            6.58500639823364        2.95605604887078       -2.51527334469528
C            7.91178373239516        3.34163334951840       -2.62627175855211
C            8.65402045476041        2.97264704058612       -3.72543866036537
C            8.09987127535549        2.21072242816091       -4.74685606862235
C            8.95989711396356        1.82705891480110       -5.96083413758670
C            9.42285305504810        3.10788844634025       -6.67902843250072
C           10.18604959805006        1.02597432108884       -5.48499518697482
C            8.17645524106050        0.96137278518831       -6.96660543470423
C            6.76778888211259        1.83137887006141       -4.62619283297335
C            6.02091569982543        2.19738440907169       -3.52881546612765
C            5.75944245194197        0.79725684429500        1.41398554688097
C            6.27199225136686       -0.41568764258364        1.81526204930553
H            6.94367541676931       -4.42496411042345        1.99841885158120
H            6.05750385301545       -3.58307538150874        0.72665710149743
H            5.85685764644414       -3.10260687674512        2.40945500292354
H            8.86449826000681       -3.20150382083606        3.23240805898926
H            7.75614420593194       -1.89339672083284        3.63015362704115
H            9.26156228640573       -1.54229116557095        2.78556839084639
H            9.14217657175436       -3.99997926405086        0.88180212854965
H            9.61293683740575       -2.37853994198096        0.39000837530773
H            8.30253047143895       -3.21923500110461       -0.45113818416871
H            8.28838786525647       -1.02506406008654       -0.80218629273366
H            7.38308125227313        1.11213171334895       -1.50780087165464
H            3.07565192634880        4.61123908614068        2.26876716880862
H            1.52447985225789        6.38891093707204        2.96820416747340
H            3.28686161095807        9.54500633876004        1.21512937185476
H            4.00720049561484       11.85674172390464        1.45232801933083
H            2.39500337977701       13.61058268061150        2.09428874862589
H            0.05553993318236       13.04290778422235        2.50269972283763
H           -1.72477280547371       11.37416230724175        2.62055251429879
H           -3.52694706604645        9.72856261241465        2.74500158203347
H           -4.31036813834329        7.43068395673984        2.48284567908652
H           -2.74832745606896        5.65641023108970        1.77590738600030
H           -0.41040811071018        6.17161861381124        1.34140983836159
H            2.15569045811823        8.40892924477310       -0.71261753176717
H            3.16047886592703        8.55740233445948       -2.37436369610458
H            6.79601101967075        8.73104816951540       -4.02673957497136
H            8.64615501162493       10.16725749691765       -4.68534812700657
H            8.26606659661632       12.08963008291829       -6.18450682148324
H            6.02298748106012       12.57728560124469       -7.01692302340593
H            3.63831151128445       12.05314139168089       -7.09646333302797
H            1.24682042125195       11.56177396993092       -7.18608469128222
H           -0.64329759937355       10.14564975143567       -6.56603070936336
H           -0.29749540443716        8.16466778436368       -5.13649570120507
H            1.92475008109846        7.60336179252088       -4.32187154161579
H            5.75627850603590        6.78213293867612       -5.22403107154135
H            6.12373967328335        4.88532683331189       -3.72729802058709
H            8.34662098920899        3.93504374896146       -1.84081337158275
H            9.68198742626969        3.28303887970015       -3.79644179338518
H           10.02642884764170        3.73362645628588       -6.02287789755808
H            8.56606636300388        3.69610501865476       -7.00691178742913
H           10.02334566440446        2.86809254980533       -7.55623956716564
H           10.81288610859059        1.61748567773129       -4.81905319492036
H           10.80018235236173        0.71459762031191       -6.32974082758904
H            9.87532920278037        0.13135450470168       -4.94582076906919
H            7.30992212202188        1.49645961932389       -7.35415873806693
H            7.83469661253186        0.03555919075762       -6.50445498441022
H            8.80386217611836        0.69317086585245       -7.81646104920720
H            6.30445831070568        1.24384441126663       -5.39856608559615
H            4.98918240302424        1.90395690218405       -3.44163200046341
H            5.04866460486741        1.31980744533865        2.03046868956117
H            5.95282752093227       -0.84016439957581        2.75122727027461
