115
 energy: -23.009523773584 gnorm: 0.000692429522 xtb: 6.6.1 (8d0f1dd)
C            0.36974945311891       -4.88302553942573        5.41564566040276
C            1.60644969804161       -3.98789240413325        5.20640977354730
C            1.25244306256183       -2.55842426501244        5.65627658796284
C            2.75434831754519       -4.53552435353478        6.07451968106115
C            2.05044589927387       -3.96342950896500        3.73551547588538
C            1.39286179052738       -4.68200700065383        2.74406561285482
C            1.81902435428551       -4.64530172387603        1.43576867934284
C            2.92403386521653       -3.88690850931323        1.06180828381316
C            3.41556951139599       -3.81741864968967       -0.31188159667605
N            4.50964931976037       -3.14282545872189       -0.63751988686423
C            4.65889814901969       -3.27330218173012       -1.97491223901003
C            5.67534080095986       -2.71096373489567       -2.82095273294688
C            6.70095339545396       -1.92102231243977       -2.29283684081103
C            7.64193334840186       -1.36177501637193       -3.11003277161289
C            7.58857221866419       -1.55124765205116       -4.50170499150203
C            8.58507020219657       -0.94908064750997       -5.40656729445566
C            9.12515663641456       -1.68922128894197       -6.43051103388914
C            9.17024278085781       -2.90490946228189       -7.05264811479827
C            9.97944250922133       -3.19977535721632       -8.11969598896060
C           10.96154258992651       -2.48386802106076       -8.88659279110408
C           11.55897519279170       -1.23996296590710       -8.92285312187633
C           11.39812010549427       -0.10197110914017       -8.15191015123777
C           10.55189635986844        0.04158674153490       -7.13616486889184
C           10.05740624280740        0.89146995759700       -6.18652524054632
C           10.50055036682280        2.23359520086219       -6.06591839102272
C            9.95522939743069        3.06026464173697       -5.13694998317071
C            8.93479435921939        2.60059289056750       -4.28720240003360
C            8.48673194363389        1.31883197376820       -4.36697897349605
C            9.03622880023924        0.40189356371735       -5.29933849461133
C            6.58306087236217       -2.35838884840217       -5.01957018571562
C            5.61842946176143       -2.95940023715701       -4.21146112733201
C            4.56007365675987       -3.81154687082542       -4.76325659174853
C            4.51757530672925       -4.14362851939132       -6.11699137045724
C            3.50829840793313       -4.92964156450034       -6.65912615160796
C            3.51197923405101       -5.28930697045809       -8.08858366018676
C            3.25053768155203       -6.58010016946511       -8.48113429688451
C            2.99190434218604       -7.85812276492175       -8.07267432419146
C            2.90596127172743       -8.93865357715830       -8.91292891512757
C            3.05260269932802       -9.14817310758798      -10.32698323725349
C            3.37483863914188       -8.43336445580708      -11.46308564298963
C            3.69751347641660       -7.10395915727440      -11.67206237489087
C            3.74537175159213       -6.15282105772131      -10.74377078335219
C            3.97347664407715       -4.83000789113464      -10.48520147425890
C            4.32359802621679       -3.90823082220371      -11.50494247111925
C            4.51843963597266       -2.59633986661793      -11.21352790427119
C            4.36498558474424       -2.12972420002289       -9.89707108707652
C            4.03442022412243       -2.98243792379225       -8.89031327604108
C            3.84372755761689       -4.36779758450219       -9.12927259038778
C            2.51296536118169       -5.41949693405118       -5.79799996299208
C            2.53789615406434       -5.12981082443514       -4.46459536190133
C            3.55232364499726       -4.33470970488872       -3.91606314937729
C            3.62428021093192       -4.04587819115770       -2.51179521488265
N            2.81750090434691       -4.39841683298483       -1.44383432091501
C            1.60162802065751       -5.17110347100262       -1.52650542427459
C            1.63642508339358       -6.55350197045121       -1.43146099483299
C            0.47503947459432       -7.28654974570257       -1.52497316256775
C           -0.75407312398976       -6.66805164517375       -1.71872888154572
C           -2.02666564974197       -7.52268315410411       -1.81952455745680
C           -1.88946543784490       -8.50235543061890       -2.99966652323396
C           -2.21478960890467       -8.31001043865511       -0.50978771325817
C           -3.28030153117661       -6.65679654824904       -2.05050858772272
C           -0.77708285468641       -5.28124365168751       -1.81398468004646
C            0.38138429653806       -4.54299692120528       -1.72032026789053
C            3.58134612577187       -3.16691122201233        2.05353697105923
C            3.15224366839660       -3.20478181604986        3.36107025677030
H            0.06934905771006       -4.88816598675636        6.46325670106658
H            0.57776295794642       -5.91332185179371        5.12813195579233
H           -0.47767582643622       -4.52401446732870        4.83217583794191
H            0.91429505019206       -2.54825480879538        6.69220439813666
H            0.45591767885390       -2.14625808047280        5.03730855397341
H            2.11256505374281       -1.89453794561105        5.58068749701905
H            2.46230186064309       -4.58291820318508        7.12332630688619
H            3.63997459477601       -3.90547405179614        6.00379998476546
H            3.03210293926714       -5.53986554927183        5.75574917567514
H            0.53526744769485       -5.28062553131833        2.99485813240814
H            1.29404362978289       -5.21410414707349        0.69288402991506
H            6.73420115016509       -1.76493888822822       -1.22856415938126
H            8.44977366864844       -0.78757753531466       -2.69024265119624
H            8.52765411787459       -3.67587932085017       -6.66048517762833
H            9.85202114044463       -4.21758201166476       -8.46739481654151
H           11.35542224949707       -3.12317271170038       -9.67021446259991
H           12.29953299967361       -1.10852710520911       -9.69936242277416
H            2.44671033588751       -1.54623041411171       -1.17505606300885
H           11.27301414343726        2.58527017396236       -6.72791147359715
H           10.29739472249658        4.07894612141396       -5.05427345534350
H            8.49984223909654        3.27731328925023       -3.56982814054395
H            7.67892293205073        0.99839260176951       -3.73413405383777
H            6.54465076967604       -2.48785274560707       -6.08401961996705
H            5.30985166419108       -3.82573999264595       -6.76729319756155
H            2.86640040147460       -8.01325008585283       -7.01375515399643
H            2.67773808281760       -9.85670031258982       -8.38545598738563
H            2.86282679307418      -10.18932963079836      -10.56755525497939
H            3.38566204662851       -9.00736625746553      -12.37913293147921
H           -4.22640944896594       -7.50292763171480       -5.17876790034612
H            4.42991225776253       -4.26815294939214      -12.51380727043241
H            4.78397053007490       -1.90382012548021      -11.99553324480522
H            4.50574425034062       -1.08173243149306       -9.68804083980079
H            3.88404279115013       -2.59827036861258       -7.89731892746428
H            1.72252746807506       -6.02482512305534       -6.20687436968658
H            1.77308413758002       -5.51853434872232       -3.81896493379341
H            2.58558552674048       -7.03930511635479       -1.28560281611853
H            0.52040673402166       -8.35897078347077       -1.44785191318384
H           -1.04901307500749       -9.18022077012411       -2.85692375819918
H           -1.72793803170538       -7.96145156337803       -3.93178053289686
H           -2.78908381422595       -9.10716310845493       -3.11121837917511
H           -1.37511349604721       -8.97883951412073       -0.32543815992184
H           -3.12088472016769       -8.91445857112469       -0.54468660987239
H           -2.29419180582968       -7.63113754016190        0.33900123539592
H           -3.19802607118264       -6.08617760898114       -2.97517252049355
H           -3.43424212355180       -5.96104136763542       -1.22609027601152
H           -4.17152164356750       -7.27953381709029       -2.12593284768079
H           -1.71031276912696       -4.76825624954477       -1.96344462635661
H            0.35813550957760       -3.46985657939326       -1.79704458105488
H            4.43731494172132       -2.57603133463124        1.77695873452257
H            3.68047907150033       -2.63667135841670        4.10693790538567
