103
 energy: -20.681556289987 gnorm: 0.000648527667 xtb: 6.6.1 (8d0f1dd)
C           -1.59712676828708       -4.06398120008893        5.03967058682948
C           -0.19246247240236       -4.13795283170532        4.41252160713763
C            0.66266091612181       -5.10562393932904        5.25351511409081
C           -0.29239725998638       -4.69587761992235        2.98108371992637
C            0.41936187584820       -2.72904222234531        4.36646225764217
C            1.61608837563733       -2.41298706615863        4.99860227128448
C            2.13730869382711       -1.14022937060326        4.94319050606552
C            1.48302517502445       -0.12527693714534        4.25186967517073
C            1.98975114845885        1.24310250633488        4.17357131953337
N            1.35119615153619        2.19593730459112        3.50979932880485
C            2.08253116556412        3.32348209645569        3.65529204022434
C            1.81546494300273        4.63865030943463        3.13625578003981
C            0.68744090201695        4.88720764884995        2.35068552881204
C            0.44551533187954        6.13715453685604        1.85240632809022
C            1.32645325306134        7.19502537631155        2.11761174301792
C            1.07484567849220        8.54804669210748        1.57455384957108
C            1.34516027898393        9.69724346401225        2.35537511806435
C            1.12710314906830       10.94842478820050        1.86944739183855
C            0.62149042824103       11.13831460998802        0.56238735289838
C            0.38587954733061       12.42311150988824        0.02474754693279
C           -0.10101723439938       12.56754836396530       -1.24010451167493
C           -0.37576646629560       11.44262480925147       -2.02839384376836
C           -0.16056151944864       10.18885169565679       -1.54103289429406
C            0.34342579124681       10.00116659258414       -0.23281778507414
C            0.58024770130133        8.71758786820034        0.30153767714371
C            2.44512314690774        6.94802265555573        2.89862858558254
C            2.71928408493540        5.68480433434609        3.42899945795245
C            3.89950944463484        5.42458255840964        4.26059674827556
C            4.79986529045875        6.43726920037367        4.59965836821530
C            5.92044589896104        6.20339838206676        5.37985756073127
C            6.84726591505175        7.30835255406533        5.72116347082842
C            7.60217008602595        7.22226689458279        6.95394917718230
C            8.91108644196864        7.57984049177553        7.19397981100058
C            9.82908557699736        8.03685247608629        6.27073462532411
C            9.51135869534120        8.26765587546309        4.98310300149555
C           10.00468928887955        8.76299139536671        3.85070333838258
C            9.22711706592387        8.94229435660049        2.68337021564309
C            7.88299971620977        8.70880447746285        2.49315986055650
C            6.94414326252584        8.29635115905782        3.42309541569690
C            7.03083666582131        8.36188207098643        4.81964518457692
C            6.15199717378572        4.90095974678515        5.84065554987431
C            5.28754522792769        3.88846034498521        5.53500213800858
C            4.15169314047970        4.12054226074967        4.75108364518785
C            3.21689297003209        3.07641071683821        4.43207704888250
N            3.16517043429441        1.73550497457618        4.76864160351685
C            4.13324871338277        1.02911668194634        5.57271139373157
C            3.97280016461088        0.93278734742692        6.94579515632147
C            4.90460829758750        0.26788439943277        7.71049289639935
C            6.02570731274610       -0.31614668451349        7.13362395214775
C            7.04131492999177       -1.05011294717489        8.02259184632093
C            7.59403994302796       -0.07421138171252        9.07791019861933
C            6.34283339227966       -2.23045399293657        8.72224637131162
C            8.22528869731691       -1.60094651655841        7.20437930093610
C            6.17763094123447       -0.21182239421438        5.75561526172920
C            5.24712354477519        0.44977461987347        4.98571890433678
C            0.28806700958782       -0.44305039619168        3.61538728134252
C           -0.23097280768135       -1.71705169148466        3.67168563238140
H           -2.04628434880712       -5.05451961506170        5.10829785662828
H           -2.26347259206990       -3.43750201224478        4.44833426006743
H           -1.54819512059762       -3.64541627821461        6.04457881340448
H            0.21039663438321       -6.09683072124040        5.28086391566697
H            0.75296738553926       -4.75660217441514        6.28187892071955
H            1.66273281365310       -5.21217267356752        4.83409359550279
H           -0.70972995762648       -5.70258546693950        2.98305858900268
H            0.69192945960309       -4.73936693938164        2.51558533398803
H           -0.93066376745550       -4.07208150339370        2.35670034599567
H            2.14994091876498       -3.17053494951298        5.54432016379184
H            3.06269827238148       -0.92717532581983        5.44222995064317
H            0.01251346501278        4.07412080276092        2.14682291338980
H           -0.43348022492051        6.32264656897623        1.25968465335159
H            1.71684004718203        9.56680853772429        3.35710078511357
H            1.33593439212547       11.81219853030283        2.47692238249172
H            0.59795674806854       13.28808396218928        0.62947540153947
H           -0.27629242159762       13.55295871909363       -1.64021029656504
H           -0.75993655017103       11.57341098316064       -3.02692417624089
H           -0.37194399851178        9.32452999332968       -2.14687213157121
H            0.38371156162564        7.85567915443531       -0.30972105343613
H            3.12702214846961        7.75836117290637        3.07041489470734
H            4.62730273836354        7.43978579556159        4.25898897599635
H            7.09285352669967        6.71650544543405        7.76115630267197
H            9.29318332529644        7.42787869019100        8.19098309000018
H           10.91044272660413       -0.16064950104004        8.77992852645965
H           11.03892127794727        9.06413702638669        3.83877268041588
H            9.77078449411137        9.29819689786324        1.82078733237536
H            7.50480808120353        8.82831038010181        1.48965754248878
H            7.55863175855077        9.21613364237429        5.21770250049495
H            7.02753843783791        4.70279033807739        6.43443991193273
H            5.47638807616847        2.89618763597111        5.89924261907133
H            3.10803752616078        1.38472192759859        7.39973426884286
H            4.76140608804997        0.19870321751935        8.77480095624775
H            6.80151751855359        0.30607212094602        9.72093409920675
H            8.07429983953406        0.77876916806620        8.59900169045569
H            8.33092171833657       -0.56413107165046        9.71387106672334
H            5.52652252057306       -1.88773637848560        9.35682302524543
H            7.04319415762618       -2.78244212297871        9.34876385716579
H            5.92867126291621       -2.92189821377427        7.98872852879375
H            8.75914778994102       -0.79761996000985        6.69722885798956
H            7.88648301959847       -2.31830117899920        6.45734749613785
H            8.93739480561176       -2.11261983128283        7.85159624464998
H            7.03318757993628       -0.65134288482366        5.27470778418914
H            5.37028854523185        0.52955008294475        3.91956269841627
H           -0.22797346403587        0.33252500454334        3.07636468688883
H           -1.15800666755686       -1.93279994759316        3.16955942915769
