91
 energy: -18.347923919135 gnorm: 0.000590908106 xtb: 6.6.1 (8d0f1dd)
C            4.36135896046852       -2.80243602113798        1.43967371486893
C            5.69871012950573       -2.04026517425348        1.41034644467240
C            6.25738152937433       -1.91742020243774        2.84027616814334
C            6.70259085175267       -2.84961771205203        0.56652437871298
C            5.46721815642838       -0.63666789745085        0.82957530041920
C            6.06728955842087       -0.20696381794155       -0.34819496682382
C            5.82734338869062        1.05120503284466       -0.85224474443311
C            4.97415119488625        1.93546725718276       -0.19945995650468
C            4.68396219887745        3.27749541708753       -0.69985329714477
N            4.00859894686740        4.16785802787715        0.01170488419454
C            3.90746686809701        5.27605127468056       -0.75546412882139
C            3.27026804692361        6.52715554188727       -0.44151489935641
C            2.66534776747016        6.73200365351204        0.80040843101204
C            2.07442135317483        7.92788656453492        1.09945044174478
C            2.06581078952103        8.97385962456513        0.16661862889058
C            1.43548760439996       10.27305658110866        0.49292024788171
C            1.54585151421765       10.82143653097494        1.77018280442313
C            0.95770098336083       12.03030812774854        2.07305038187392
C            0.24939173832233       12.71733841458040        1.10787084338034
C            0.13083687358237       12.19141935675482       -0.16289455954169
C            0.71671008937054       10.98213939040347       -0.46892046915200
C            2.66239475778801        8.76827106845571       -1.06799469409128
C            3.27123131955523        7.55710475175321       -1.40904583036831
C            3.89766969308870        7.33379532704205       -2.71751022882721
C            3.88761386839874        8.31029287850235       -3.71717049625656
C            4.46775314916580        8.10511749672993       -4.95890266804302
C            4.42090298273235        9.16015378860449       -5.99617891047304
C            5.51666147874871        9.40234371801678       -6.82374373344155
C            5.46965308927694       10.38627952774648       -7.78749663460141
C            4.32897263493560       11.14762772986940       -7.94556455089936
C            3.23374088403972       10.92211904050120       -7.13617838308176
C            3.27758344490025        9.93929314613737       -6.17132439354592
C            5.08916177723725        6.87538094664963       -5.21185184795236
C            5.11660587520896        5.89872352225580       -4.25710272664637
C            4.52769787057474        6.09801106203368       -3.00351903853577
C            4.52663235680814        5.07717139467381       -1.99160291459746
N            5.03648169807352        3.79148838634737       -1.96079211444911
C            5.74783029625092        3.13149498847870       -3.02894616309606
C            7.11658646801627        3.29775431959268       -3.16972546929591
C            7.79409201604422        2.66094688447281       -4.18479453615166
C            7.13143902804191        1.84116799242395       -5.09005177872840
C            7.92568758417041        1.14567127569749       -6.20616226476594
C            8.59190745945005        2.21167869774729       -7.09530012027013
C            9.00523061021418        0.24493650671496       -5.57771867279311
C            7.01955937719473        0.26971754446411       -7.09279799060787
C            5.75758080254716        1.68615152956570       -4.94271821616930
C            5.07474428534870        2.32090815949594       -3.92909132427937
C            4.37932661596781        1.50830064562616        0.98271993881130
C            4.61921286068810        0.24844525373901        1.48331384172236
H            4.49513581732834       -3.81139465191924        1.82916220010772
H            3.94140408655224       -2.88038699100769        0.43710000936372
H            3.63112213074852       -2.29568356908302        2.06931574780663
H            6.45867988833477       -2.90028728477164        3.26582673472070
H            5.55524396684079       -1.40839122864943        3.49913799293843
H            7.18871674120030       -1.35166607026176        2.84203958377833
H            6.86139964656887       -3.83788598587067        0.99769602115509
H            7.66986913991247       -2.34966010939472        0.52228964313535
H            6.33770162862805       -2.99027907753118       -0.45059093066418
H            6.73089306492536       -0.86338635257153       -0.88245625704572
H            6.30938739803709        1.35781945960812       -1.76057840615185
H            2.67514110636380        5.92868712529254        1.51651039979206
H            1.59947088426685        8.07190883228322        2.05444168941784
H            2.11069021909754       10.29490717624812        2.52006820197097
H            1.05107275155204       12.44076932629000        3.06542529940627
H           -0.21143386691484       13.66221518421982        1.34617362028114
H           -0.42423678447205       12.72619227785221       -0.91648699683241
H            0.60895886736087       10.56677414513213       -1.45610976031060
H            2.66534712550736        9.58127556419173       -1.76802630577622
H            3.42288479215545        9.25904238533225       -3.53019232850585
H            6.41139301333567        8.81846860662196       -6.69256721064216
H            6.32580315703472       10.56357113100045       -8.41796398080667
H            4.29345335533225       11.91690137246020       -8.69981883702656
H            2.34171663640497       11.51445900139774       -7.26023095510635
H            2.41718663169363        9.75472833855755       -5.55130925744815
H            5.53127871306634        6.70010645570622       -6.17746023459234
H            5.58868369208361        4.95752614039974       -4.46790147195236
H            7.63648359466186        3.93029963027079       -2.47128156580107
H            8.85698735682915        2.80073331922261       -4.27879384661454
H            9.28587623218261        2.82672378337895       -6.52385350545534
H            7.84242258867464        2.87114445539995       -7.53230987691875
H            9.14961302724534        1.74827982745011       -7.90883840387752
H            9.71190934957594        0.82566249528981       -4.98635234473308
H            9.56960159532326       -0.28177671456193       -6.34696030938283
H            8.55226035215719       -0.49895879865837       -4.92267744448317
H            6.24899019299408        0.86775076154434       -7.57862300754686
H            6.53524446580174       -0.51162829597626       -6.50756566200020
H            7.59999325919851       -0.21769171765515       -7.87597581811465
H            5.21130713847880        1.06034079773393       -5.62563044743405
H            4.01185342093905        2.19505960581011       -3.81701287327571
H            3.72017552384069        2.18436945172041        1.49928517604138
H            4.13746527114506       -0.05835735628625        2.39538199165493
