28
 energy: -4.695640608742 gnorm: 0.000548449882 xtb: 6.6.1 (8d0f1dd)
C            0.92009236386553       -1.57648710215188        0.93891169765374
C            2.07319670092871       -1.26407342143959        0.72381888540053
C            3.37449794354341       -0.91911750195690        0.47934850353095
C            4.38850200413619       -1.63103781176546       -0.09619152383898
C            5.68410901937021       -1.23060233611759       -0.29288769875624
C            6.37157838782103        0.02247731365361       -0.09403093183914
C            7.79075427143467       -0.10945975425930       -0.00716007701160
C            8.70274873902072        0.72666368261159        0.52636175954911
C            8.55873380629889        1.87115495613165        1.24867628073852
C            9.58270374830027        2.59372408559579        1.88041125788060
C            8.08958528083952        5.42978022888347       -1.97247007796015
C            7.50417782191829        6.18270906736247       -1.05236809714375
C            6.44354578197652        5.97559811718582       -0.46003441236707
C            3.99316557165432        3.71795810473213       -0.37999831815869
C            3.61109724443888        2.49702771849654       -0.25433896697308
C            4.36407498854662        1.42990156208033       -0.13346038023321
C            5.73250624081671        1.31661309422213       -0.14158739141302
C            6.45433360041853        2.42734095647008       -0.37507353028423
H           -0.09383998456237       -1.84815518598932        1.12544273427364
H            4.13977259231289       -2.64535861636605       -0.36645899211880
H            6.34019849931516       -2.02205724646478       -0.62697280922174
H            8.19218678718003       -1.05620064578453       -0.33300943891313
H           11.09944446825332        1.34408696275999       -2.57649188948342
H           10.02526212713922        2.04908566709162        2.69098685240741
H            9.24560574481232        3.55064645968534        2.22768152349440
H            5.55522027298981        6.78503265610565        0.74797889425305
H            5.35612745333161        4.78880584741114       -0.45280517158903
H            3.03798852379723        4.98590314165813       -0.96894868194119
