91
 energy: -10.378116927364 gnorm: 0.008188918027 xtb: 6.6.1 (8d0f1dd)
C            1.83549655757150        1.76108125782102       -0.74589550115336
C            1.78421629764749        0.53636086228937       -1.50568440272790
C            0.40170392411483        0.35005303034154       -2.09864055959382
C            2.80118756202998        0.59084717472580       -2.62943312079982
C            2.10651667312624       -0.61549251541282       -0.62858873299865
C            1.48422662701286       -0.96975438239743        0.47815588356603
C            1.82208480412781       -1.95551092330209        1.28557858413876
C            2.83869027385179       -2.78862655801791        1.13837607275810
C            3.20989472942139       -3.77280477305062        2.02302937458175
N            2.73422885520189       -3.96724501984903        3.19574223487552
C            3.31492108082524       -5.00060425858067        3.75312111394836
C            3.12899310861986       -5.44787593933419        5.02637904972148
C            2.30438943408746       -4.93086961632288        5.93042213027415
C            2.13521985317878       -5.30352362985083        7.17685644390065
C            2.74693423578741       -6.26983316213905        7.86292435514721
C            3.70766562319275       -7.17012138399369        7.43275771485354
C            3.54076071706024       -8.16115624142525        6.56739723728557
C            4.45189958732884       -9.00043212294113        6.10712521189052
C            5.74730855035742       -9.01815782598051        6.37290541292416
C            6.65400911883132       -9.87210417822483        5.92033487558314
C            6.47169871609511      -10.87263329421652        5.13794774632248
C            4.70922000630465      -10.13011006625553        1.61491559656590
C            5.84270914869621       -9.64104747618239        1.97971470972980
C            6.54649923102396       -8.59053121753012        1.43212324126845
N            6.19408320578697       -7.55448582866375        0.72085167826067
C            5.03266515393349       -7.06308586053812        0.42659532919991
C            3.75688461093879       -7.41184477516579        0.84643276008935
C            2.60656559375604       -6.90060323511092        0.42709787945231
C            2.44260740702724       -5.96279725419991       -0.48549597878423
C            1.31228271783942       -5.43123458816212       -0.92460713656914
C            0.04482465851083       -5.71710234244609       -0.55521195113112
C           -1.02233255795439       -5.10086700324669       -1.08203251400945
C           -0.15672675242026       -7.84965226637160       -3.55079184528254
N           -0.56382603438797       -7.84227701005456       -4.75640178238147
C           -1.25033428861717       -6.89589870101280       -5.34788093083067
C           -1.70191468519553       -6.84622408378559       -6.62804243354488
C           -2.32134848885023       -5.84065819582865       -7.18913123946777
C           -2.57256264224821       -4.65778188272959       -6.59555935046245
C           -1.67907498769190       -3.78665325748051       -6.15870851967165
C           -0.40132139993045       -3.87033951204169       -6.24856581595914
C            1.04933152926978       -6.37543543521529       -8.26488766797699
C            0.40614712936148       -6.27591871123595       -9.54576089967783
C           -0.74019328306357       -5.41936112342257       -9.58554461445469
C            1.31109069062168       -6.16545030661608      -10.69301094270633
C            0.01239789199197      -11.66022251965283       -8.52603008739174
C            1.91272970195144       -7.30228441759398       -7.89370766116561
C            2.45823792882479       -7.42725796584242       -6.73977021379506
C            3.39657172096905       -5.93265906662202       -3.80022703146125
C            4.58868465251731       -6.15342975240007       -3.50248920563959
C            5.11007977579705       -4.20835540484695       -0.50708200592302
C            4.78830789448371       -2.55761307914739        4.57578373778021
C            2.79505177555129       -1.61415705714127        4.49366958960942
H            0.12499217886807        1.16240881104316       -2.74047780948239
H            0.55365485980488       -3.23162108203259        3.68080702676747
H           -0.34663812177822        0.22350095685111       -1.34130495295073
H            2.62987509400790        1.41457922623166       -3.29165521594794
H            0.71884485403671       -5.02800483123729       -4.44914849747950
H            2.83157820617850       -0.32135828965656       -3.19098291401137
H            2.14481857283449        4.78904011311442       -1.78498913454389
H            4.99224556444196        2.42401983367330       -1.15574738486131
H            2.01894324926731        0.98091560239448        2.41397236448390
H            0.03676978387498       -2.57740400328573       -1.50533143991603
H            1.03327507225633       -5.32819030700649        2.16933903132568
H           -0.57836039504089       -5.22113357621965        5.19355081653608
H            0.99889119287792       -2.46395017597794        6.91731058206197
H            4.17958470924341       -3.31437782027658        7.96305600664860
H            6.06482683179858       -6.09464200929343        8.68676864013740
H            4.89062314493109       -8.95705463361946        9.37910770558060
H            5.67942488713581      -11.49067890819964        8.24136466343755
H            8.26927108615388      -11.11653319913196        2.92587126552628
H            7.19616905890787      -10.66292295122898       -0.66740820716063
H            4.30624938709742       -7.78893245330158        3.63346106292572
H           -0.10568999002980       -6.47939608457696        0.19253805368144
H           -2.01660130782873       -5.30381417553827       -0.80847877602016
H           -0.32529120725491       -7.07370148181745       -2.86052788786629
H            0.02614161959831       -9.08499866721140       -9.51746890306639
H           -2.24841544344627       -8.07498678815970       -9.32273840256913
H           -3.99497324677601       -6.31934642053313       -7.77930923215183
H           -4.75634074430591       -3.24170983039449       -5.62824853640741
H           -2.42201129936479       -5.04293662429170       -3.64973609427655
H           -1.38541486507090       -5.57079547040648       -8.76651897091627
H            0.79475616131073       -6.26245756602852      -11.62787831354721
H            1.86556838166848       -5.24746677692319      -10.68213840835458
H            2.78596287568033       -9.51970768650838       -9.69007794276681
H            0.34751967858807      -11.84569856408729       -7.57573422428044
H            2.38228900185457       -4.41541632475589       -6.60640573222036
H            5.17304804204881       -6.71693589673812       -6.45741611530552
H            2.62243714199192       -3.18951312186788       -1.80629713386183
H            5.78209068752011       -5.11986170592988        2.56259824242070
H            5.75780201979752       -5.59603218169813        5.82749200277641
H            4.34807979715175       -0.35151218236274        1.58943701838139
