104
 energy: -21.485764742306 gnorm: 0.000709049811 xtb: 6.6.1 (8d0f1dd)
C            0.72991495724259        0.38501042100779        1.74033512263541
C            2.07574135644187        0.73161552000109        1.07790982644646
C            3.12847701910905       -0.32408557490349        1.46463202590555
C            1.88869923375857        0.69558558994940       -0.45086493803689
C            2.53354594655516        2.11467432497484        1.56514456098411
C            2.78135225509348        2.31595255455060        2.91621494702560
C            3.17901899494615        3.54295833401168        3.39297986802034
C            3.35253275331877        4.62442353115023        2.53512782069323
C            3.69934875426012        5.97380205831221        3.03636660963108
N            3.03381550556543        6.98102381570939        2.51784235836574
C            3.28282133914750        8.18552589328398        3.07496741164781
C            2.59671505070177        9.31980870113084        2.59807771578428
C            2.77988874793962       10.54705718744147        3.16503893826328
C            3.65939984868614       10.69922284476128        4.23676464571533
C            4.34215706353183        9.62197074842801        4.72066841952743
C            4.17717896286744        8.34095593239393        4.15870466644095
N            4.87373407957146        7.30300242021883        4.66763253479508
C            4.66047920210480        6.14790089136864        4.08164538428862
C            5.42497099434101        4.98815702717597        4.59353545140088
C            5.38545305593542        4.69634902658218        5.94912277114575
C            5.96838873865145        3.54358728289842        6.46411502572396
C            5.90119419699074        3.18164075716064        7.89606732485543
N            6.93312721185125        2.52873296923962        8.37926111684830
C            6.88074368198044        2.26357356419690        9.70216371751865
C            7.95527456623431        1.58618492086386       10.31127109522246
C            7.95342283404296        1.31472903038046       11.64845296589050
C            6.87583399087537        1.70892171618198       12.44148680134351
C            5.81857813711418        2.36564970960515       11.88277266115666
C            5.78741253120983        2.66124848821798       10.50546880605109
N            4.71256033445462        3.29553871175997        9.99103269831123
C            4.76552089510338        3.52372821971600        8.69874252769525
C            3.57702820127763        4.15883165435395        8.07539770387140
C            3.22557292351059        5.46622060747031        8.39633873187876
C            2.22083363788326        6.11014133195699        7.70958489695278
C            1.52492445626088        5.47642482479425        6.68670733347294
C            0.44573084474348        6.22527933702027        5.88883016877173
C           -0.88132006513022        6.15940041183659        6.66023349293556
C            0.85400205952297        7.69884479656114        5.68669428321586
C            0.25512161149039        5.60273069838919        4.49042213186698
C            1.81883117704771        4.14173876809289        6.43416372720534
C            2.83156410141208        3.49440003601104        7.10557236883458
C            6.66455313070923        2.71926129194389        5.59023770673344
C            6.77086664164329        3.01497606907624        4.23905245763848
N            7.51678964417971        2.15906351237352        3.36247981113229
C            7.15633329947581        1.79604332238926        2.04829343759188
C            6.01780723971370        2.08218313781171        1.29732177021389
C            5.93638320610671        1.61148493274520        0.01046058161033
C            6.96450958241684        0.84442017536633       -0.54270350547914
C            8.08816463716127        0.53974566535289        0.18754916653441
C            8.18718618922743        1.01823722759371        1.49465137737959
C            9.21731547607465        0.89374239882071        2.49904059389363
C           10.45972019103129        0.25891917909562        2.49420081273028
C           11.24854866753512        0.34531367278605        3.61632625402795
C           10.82241841226848        1.05704829304419        4.74093949907878
C            9.60268590107848        1.68706302131607        4.75975939963914
C            8.78431025585769        1.60223576775007        3.63283065005969
C            6.14524368988193        4.15150145690957        3.74986084129253
C            3.09352489333996        4.42849347511940        1.18376765441069
C            2.69696950747130        3.19745015491642        0.70887807055969
H            0.36936024977145       -0.58728315522644        1.40587855131620
H           -0.02517372422892        1.12967731833413        1.49002220999627
H            0.81980720846138        0.35198815850702        2.82525326306764
H            2.83769275810866       -1.31232652367199        1.10962041628034
H            3.25436860841145       -0.38305007158670        2.54484384260356
H            4.09677728158309       -0.08310904856715        1.02885535928026
H            1.57100594350734       -0.29422900616147       -0.77747467049669
H            2.81897032528901        0.92914959992980       -0.96675845456376
H            1.12749422334598        1.40655799776813       -0.77007024993961
H            2.65664244320300        1.49843464840680        3.60461049633982
H            3.35054348182346        3.68047753947968        4.44496463115699
H            1.91502050587181        9.19181959146577        1.77563876382907
H            2.24418099684476       11.40210592051733        2.78638248793617
H            3.79971761956015       11.67117859981273        4.68065635622195
H            5.02435118093077        9.72972004441484        5.54568772373903
H            4.85975523938210        5.37251162507299        6.59519322709888
H            8.78433914701885        1.29013063595077        9.69253606530036
H            8.78575713460543        0.79622715843991       12.09547865313348
H            6.88017529148093        1.49256831711010       13.49733796823222
H            4.98163027016458        2.67128559142682       12.48600333264024
H            3.78099918913317        5.97888057223823        9.16280689265981
H            1.98128494284428        7.12677750193853        7.96564603042595
H           -0.77966685869822        6.61308902192128        7.64560067024839
H           -1.19633612145522        5.12557544732254        6.79928863110481
H           -1.67138480288012        6.68551516197738        6.12512930168210
H            0.86507592179776        8.24785242891603        6.62670107963915
H            0.15793344065540        8.20844475616964        5.02108176880142
H            1.84686747732916        7.76138505048505        5.24449275729236
H           -0.14113286161028        4.59034343611082        4.55046354815924
H            1.20005009515111        5.57250209205445        3.94999992213508
H           -0.44598638462377        6.18951801200210        3.89771432661384
H            1.25982022492535        3.60375894899512        5.68969494916364
H            3.08001367430022        2.47390419644173        6.86858602326356
H            7.12685764869990        1.83008788061223        5.97458115171931
H            5.21416116363697        2.64384880748501        1.73566660437591
H            5.06598288588235        1.83746504974985       -0.58276125516909
H            6.87315835751465        0.48552505410824       -1.55478521053744
H            8.88490527909770       -0.05078831615414       -0.22905432858753
H           10.78339916890232       -0.27962854800264        1.62099784190185
H           12.21124362871040       -0.13850010833352        3.62868605076799
H           11.46309817595642        1.11434515582089        5.60547774773623
H            9.27733347724643        2.24497535821729        5.61905905584499
H            6.22014093056040        4.39243779043216        2.70608353476674
H            3.19961974433979        5.26405911796993        0.51359524428124
H            2.50728366465225        3.08191935130327       -0.34321461070479
