53
 energy: -10.984231898597 gnorm: 0.000720016249 xtb: 6.6.1 (8d0f1dd)
C            1.21619761461098        0.44493820070445       -0.62386904674948
C            2.62729083321117        0.79082720764913       -0.11286992964233
C            3.07667766148186       -0.25900060517470        0.91967694293188
C            3.59920698389049        0.74589199456526       -1.30764464839809
C            2.60210837077701        2.17639247928877        0.55088390123480
C            1.76013349091677        2.40250565207026        1.63307987265450
C            1.70410999282595        3.63169780195719        2.24931631129755
C            2.49470089555023        4.68176276529276        1.80210723829371
C            2.42985301307479        5.98967448277555        2.43870327227694
N            1.63394694474765        6.29013073393528        3.47086384131484
N            1.81827978653363        7.53109849412834        3.77877525490996
C            2.73176543790708        8.04429469545863        2.94424781069687
C            3.21094910221640        9.41445140886009        2.93970235895236
C            4.22184190549525        9.74743626245201        2.03885258463417
C            4.72762846658202       11.01905331399972        1.95683629712958
C            4.23680388977493       12.03782299147431        2.77999204940765
C            4.73651833222712       13.37242724654679        2.71183697116620
C            4.24553364181546       14.34786145640840        3.50988172866009
C            3.20691677850007       14.07784466822553        4.45269566574777
C            2.68106590425013       15.06753098601733        5.28530908474404
C            1.67654832971050       14.77387250694946        6.18378364189179
C            1.16946392984363       13.49519903165914        6.28010118257039
C            1.66115304999562       12.46929036944568        5.47030859122187
C            1.16102221651899       11.13484626833590        5.54011504012328
C            1.65440401650722       10.16350441852870        4.74054859867810
C            2.68981787829689       10.41644462281687        3.79420773352735
C            3.20879118367690       11.73236478640893        3.70460756021790
C            2.69184485987882       12.76160795519373        4.54512944241623
O            3.15161620224775        7.08185641853539        2.07609956893486
C            3.34330479320476        4.46326351015565        0.72605023391457
C            3.39502574921633        3.23142671030955        0.11240227981151
H            1.20731409887846       -0.52645704652120       -1.11721877727586
H            0.87309073327259        1.19052861140199       -1.34036871630244
H            0.49618760747877        0.40931646580237        0.19225943916336
H            3.11894277646330       -1.25209262937962        0.47348845636445
H            2.39057172817959       -0.30228310359851        1.76423777981534
H            4.06719213450997       -0.01965266141842        1.30514707801870
H            3.59607546972309       -0.24045911677387       -1.77074543126722
H            4.62011009856439        0.95729331664672       -0.99149836287995
H            3.31531808974519        1.46891967209797       -2.07159737326239
H            1.13882830669839        1.60217422201901        1.99530459329946
H            1.04605041582034        3.79821306347041        3.08443528923274
H            4.60246196823025        8.97075450820664        1.39774041725868
H            5.50875960296621       11.24662742619761        1.25228580737772
H            5.51811857905273       13.59284073038799        2.00554623405416
H            4.63322100655660       15.34961404017633        3.44386099645875
H            3.07014412105414       16.06872744259678        5.21695625345432
H            1.28325408096090       15.55251326125972        6.81664724188453
H            0.38501259626497       13.27551947730218        6.98354412275446
H            0.37818248311374       10.91366877662245        6.24476651546785
H            1.26106153359755        9.16777207779187        4.81151454451453
H            3.95698460911310        5.27722637853004        0.37991682758618
H            4.06159670426059        3.09131625221238       -0.71962437027978
