109
 energy: -23.088847379047 gnorm: 0.000663855127 xtb: 6.6.1 (8d0f1dd)
C            3.26619277908989        1.34327351209698        0.85889018313087
C            4.45376542423995        1.71671288786257       -0.04748867313160
C            5.64668521395789        2.10202306334936        0.84826897601668
C            4.85976626361236        0.49987092758041       -0.89953391430551
C            4.04012100829860        2.87001983611014       -0.97413861133582
C            4.68150558939645        4.10366972232048       -0.96576814353053
C            4.28226424990093        5.11830470758108       -1.80698288342755
C            3.22386944107732        4.92947756676401       -2.68235160079700
N            2.79109665771366        5.99154726290013       -3.55844253012059
C            1.71672413421155        6.88081976620899       -3.37499926838625
C            0.86508819906748        6.97002425539925       -2.19452600210338
C           -0.28522515792541        7.75672634436619       -2.23946951550411
C           -1.09074994508392        7.89907855183583       -1.13583017217464
C           -0.77197333250720        7.26628311032232        0.06668694973272
C           -1.60764025850677        7.46205154703165        1.27450429852560
C           -2.97124033765583        7.21171310258113        1.21129857647930
C           -3.80311609448766        7.35687433757467        2.31103562414957
C           -5.25211355046951        7.07493694251959        2.16583626337080
C           -5.68815862574400        5.85209539386663        1.65815235704894
C           -7.03296078630647        5.58402863654709        1.52593433520710
C           -7.96761013701421        6.53090443603382        1.89456417220238
C           -7.55394642689127        7.74951384330691        2.39423011633654
C           -6.21017340568518        8.02127839994984        2.52659512000125
C           -3.25088926942723        7.77596289582885        3.54045889828121
C           -4.11727736249510        7.92804349128301        4.73649065823724
C           -4.81929172917973        6.83882270971602        5.25239403616028
C           -5.62419745554190        6.98123146566957        6.36052461682575
C           -5.74282988153015        8.21101115687832        6.97688640411697
C           -5.05435910743989        9.30031169324961        6.48123264687410
C           -4.25036052285719        9.16258941890551        5.37193166414865
C           -1.86991471879465        8.04747611937930        3.62701280030548
C           -1.28393628818182        8.50615283923770        4.91270422242263
C           -1.31917192309902        7.69388068389837        6.04514277802082
C           -0.77924742930054        8.12456621837535        7.23664076215161
C           -0.19175017937401        9.37114951634622        7.32018806562734
C           -0.14593276737231       10.18802441567315        6.20818263485478
C           -0.68728788365940        9.76195172610813        5.01577868144669
C           -1.04365512914778        7.89049434616765        2.49598873968410
C            0.41029599657610        8.17794652989524        2.58636593329721
C            1.22608464596266        7.47213847728132        3.47073460251550
C            2.57646691792560        7.73174238065599        3.54299418237579
C            3.14026251331212        8.69768458836686        2.73346153061657
C            2.34877715588863        9.40644306928919        1.85176556659420
C            0.99743539876785        9.15218430188281        1.77891285730180
C            0.37040874172394        6.46619526300484        0.10749044733843
C            1.17122100648230        6.32423022250935       -0.99705747201541
N            1.55428825664862        7.66400818902828       -4.43284126039813
C            2.51276800384612        7.31487067609921       -5.31936674502188
C            2.76271533434027        7.85777853668133       -6.63027405217318
C            1.97348010958714        8.89258145945946       -7.13602488645509
C            2.21674306580701        9.40891334153895       -8.38071901779170
C            3.25580790079963        8.90144947502499       -9.14756072251497
C            4.04217550389080        7.88330509757816       -8.66844506631858
C            3.82371558289628        7.32858468808614       -7.39977608259377
C            4.64715809792728        6.23848145969053       -6.86324845286896
C            5.70994573682380        5.68141990446589       -7.58790968163874
C            6.46756981981515        4.65917119587965       -7.07425035670066
C            6.19500295248540        4.14884207844918       -5.81387475676056
C            5.16631960247896        4.66901966693823       -5.07681496726234
C            4.38036830450771        5.71314341968799       -5.57532236990992
C            3.29788339361024        6.27797157616218       -4.81338345878663
C            2.57901343275277        3.70332103475845       -2.70005988037254
C            2.98297028117946        2.69238544972868       -1.85796737394320
H            3.53543757025714        0.53907151952875        1.54321076601486
H            2.41035997884283        1.00986136988108        0.27346633615822
H            2.95134346146064        2.20088609738559        1.45298116919621
H            5.92932744348509        1.27042156562322        1.49350301661493
H            5.39859693378855        2.94690660540226        1.49019495573863
H            6.51820044663740        2.36513477399479        0.24939597230543
H            5.17552605224529       -0.33043740455883       -0.26834519138720
H            5.68632030349867        0.75352416430839       -1.56285026022205
H            4.03144637883256        0.15280515284677       -1.51574055840664
H            5.50340452287238        4.27681752754348       -0.29425556383746
H            4.78248270942843        6.07120552249144       -1.79679604947293
H           -0.52557715391771        8.26180005515876       -3.15890741836850
H           -1.96743690663670        8.52204695437932       -1.18036572281106
H           -3.39635238805399        6.88916640442516        0.27789867439142
H           -4.95696845523451        5.11285138655098        1.37914960598406
H           -7.35581839593092        4.63272925419876        1.13526822827001
H           -9.01945780918423        6.31920968066596        1.79137996261725
H           -8.28317441271433        8.48928151935377        2.68182653165567
H           -5.88407281690439        8.97041464441324        2.91561072858730
H           -4.72404188812453        5.88227551392751        4.76791219765101
H           -6.16289485214150        6.13123848763470        6.74656367275254
H           -6.37296903860567        8.32070762445912        7.84446341943763
H           -5.14601376272085       10.26007707878768        6.96306452040665
H           -3.71206327100681       10.00911382576579        4.98164638116594
H           -1.77958215691207        6.72339333922708        5.97511531357493
H           -0.81665117601098        7.48765850524443        8.10533327788129
H            0.23062886816420        9.70677146197166        8.25334023959717
H            0.31397385710873       11.16065817079762        6.27283073481733
H           -0.65434871880308       10.39502028317042        4.14576077871428
H            0.78291316425807        6.71782819933517        4.09782886640305
H            3.19409074664585        7.17942829127034        4.23234216904317
H            4.19781299509935        8.89824636367047        2.78963296218393
H            2.78929850581562       10.15841846417509        1.21760562392502
H            0.37720049882604        9.69976499828429        1.09028936426578
H            0.62454205885069        5.96920044239355        1.02783710741676
H            2.05694270159022        5.72242668832791       -0.93305306951704
H            1.17176109286661        9.27464424931112       -6.52812220336251
H            1.60285296000481       10.20723988428978       -8.76478291320882
H            3.44502584495421        9.31104695980317      -10.12654282988792
H            4.83921988996785        7.50928108842067       -9.28459155935193
H            5.94339323663580        6.05857945597205       -8.56669373977241
H            7.27941650689290        4.24837634948353       -7.65232499477481
H            6.79270465850360        3.34453557270910       -5.41672511292666
H            4.95361354117426        4.27418691900586       -4.10120514005196
H            1.75667343743748        3.56048836182978       -3.37933724696870
H            2.46728582574921        1.74819769419120       -1.88268478549615
