103
 energy: -22.114899482551 gnorm: 0.000937773051 xtb: 6.6.1 (8d0f1dd)
C            2.43944553772993       -1.90608243964797        2.43455993254087
C            3.97321011701497       -1.76244745340944        2.43072019775415
C            4.36517990009570       -0.37769336256596        1.88436073317280
C            4.46935394170754       -1.87371467619043        3.88506536187542
C            4.59048882556273       -2.84503773220842        1.53259953213300
C            5.58788515107519       -3.70450420666720        1.97886725033376
C            6.15499280706786       -4.63409680022840        1.13601476472288
C            5.74269968297441       -4.73090268701740       -0.18400506308069
N            6.40061523272551       -5.64092751886626       -1.09092977748862
C            7.65975289024104       -5.47350728647241       -1.69386769149150
C            8.52568451009679       -4.30973247262052       -1.53788904058126
C            9.88443398198012       -4.41363456707322       -1.83414729814111
C           10.73627556421648       -3.35570771751721       -1.62593732582497
C           10.26029516166625       -2.14708169079632       -1.11384996123744
C           11.18658326416903       -1.04299383311700       -0.77255590874461
C           12.06828042384317       -0.55407511108805       -1.73988108776607
C           12.95846195460097        0.48446493114123       -1.49208300855050
C           13.85356435105841        0.99203062299718       -2.55879777419275
C           13.71945451977770        2.29312621968836       -3.04080453447225
C           14.56404275587078        2.77102741677275       -4.01831523005366
C           15.55273619342243        1.95843240031696       -4.53630138254599
C           15.69337908163588        0.66403913892015       -4.07648894539411
C           14.85148133302387        0.18255499137916       -3.09808454716912
C           12.97081533092268        1.02797217719759       -0.19595021452557
C           12.09482992967260        0.54530799934578        0.80053178025502
C           11.18322720254633       -0.48677610979814        0.52984038198586
C           10.27335462656628       -1.00102242471327        1.58240397353287
C            9.26933477642085       -0.19480322780142        2.11905032348382
C            8.41389728190343       -0.68406191882099        3.08128311627111
C            8.53721782824175       -1.98754681389742        3.51975606701343
C            9.51673951865683       -2.80378814809355        2.99076672052636
C           10.37810733392457       -2.31678258777667        2.03334000490166
C           12.38167763296742        1.26392657060788        2.04819119069963
C           11.91129228987289        1.22922365159925        3.34346306556320
C           12.47809181056842        2.08596437428582        4.30050894411619
C           13.49785237736302        2.95718554569643        3.99270170019696
C           14.01758039107067        3.01702337230605        2.67817914171909
C           15.07258454249352        3.82457829321554        2.19124174563348
C           15.47411197227463        3.73350085977685        0.87781029578414
C           14.86612636045140        2.85259198564936       -0.03017747864995
C           13.82399379107961        2.05859095534360        0.40006866546634
C           13.42606529152810        2.15978713939551        1.74762937142660
C            8.89240903089716       -2.02743131165618       -0.86719606825360
C            8.04585098392039       -3.08557327879938       -1.07357592839587
N            8.00601547640763       -6.54395476359525       -2.39620554406258
C            6.98418581632892       -7.42174895556082       -2.28180947727820
C            6.86774885366843       -8.74049101241551       -2.84967191391009
C            7.87987461529303       -9.25955523509735       -3.65950035616216
C            7.76545884015992      -10.51271448872290       -4.19907260790684
C            6.63548307270757      -11.27520571733950       -3.94000893887146
C            5.63043655318917      -10.78288242995655       -3.14504758747832
C            5.71124079921942       -9.50508482659486       -2.57437949374181
C            4.65540846261381       -8.95591386205323       -1.71555082399278
C            3.49582276526232       -9.67973168440318       -1.40525445796103
C            2.52178515420100       -9.15542856921159       -0.59340789676788
C            2.66552126284130       -7.88500623059554       -0.05582737039643
C            3.78357289172515       -7.14837959433354       -0.33762552654773
C            4.78972013801431       -7.65796466831086       -1.16483267747696
C            5.97265947589729       -6.89963795239420       -1.47366070530244
C            4.74156964312173       -3.88538069349598       -0.63680476208333
C            4.18019104647642       -2.95628482328840        0.20964133781204
H            1.98111603299867       -1.16754967912094        3.09184204664493
H            2.14715053902988       -2.89588166535480        2.78426985458508
H            2.02260827338428       -1.76551401207207        1.43842468442106
H            3.96104576971514        0.41805662329435        2.50958812431446
H            3.98857528064292       -0.23292605782416        0.87250118192998
H            5.44906398365907       -0.26822289032290        1.85576933699958
H            3.99448173884463       -1.12121830405919        4.51431122818552
H            5.54525282613608       -1.71730682560659        3.94560549942695
H            4.23586200064575       -2.85168273391014        4.30516801985289
H            5.93703418203253       -3.64215235349797        2.99384127409376
H            6.94021061675045       -5.28383958984159        1.48154075876848
H           10.25867408666422       -5.35142562535280       -2.20651295371609
H           11.78930359920712       -3.45954448332957       -1.82333758933797
H           12.04396663584910       -0.98605357911362       -2.72403690840352
H           12.94700592496847        2.92199395393693       -2.63211603011486
H           14.45271345029667        3.78068850685177       -4.37890095393077
H           16.21361868124224        2.33362774207490       -5.30069823342213
H           16.46450588015709        0.02983001789722       -4.48262873019590
H           14.96109355594982       -0.82353706300356       -2.73110321886973
H            9.17267652857877        0.81823852978929        1.76776079928884
H            7.64814839127876       -0.04750642651909        3.49370158586220
H            7.87289906348448       -2.36834022326779        4.27803566078791
H            9.60671673772644       -3.82401442545335        3.32657563046172
H           11.14013640858400       -2.95086879901630        1.61382598691306
H           11.12547215980669        0.54725692132767        3.61107030663918
H           12.10196926286936        2.05499318154410        5.30986560175004
H           13.91738135104797        3.59857882217545        4.74793094480554
H           15.55979886603938        4.50581391302962        2.86675372701108
H           16.28453826171588        4.35421220171344        0.53263560423561
H           15.20425552032246        2.78779012965000       -1.04803939172116
H            8.51141910919415       -1.09574656160926       -0.48575469826579
H            6.99928044356149       -2.97343465964012       -0.86456028695336
H            8.74917178761562       -8.65441465978627       -3.85026330276982
H            8.55035938312360      -10.90653804431250       -4.82396211323900
H            6.54838404781510      -12.26114441927047       -4.36692079646355
H            4.76699491252115      -11.39560459919292       -2.96113604820312
H            3.35977059391127      -10.66696169890721       -1.80728324098674
H            1.63944477230397       -9.73286697769836       -0.36968078348344
H            1.89696991562275       -7.47939384933480        0.58187476481343
H            3.89777070331618       -6.16466337985863        0.07776128761568
H            4.42845499040563       -3.95533381043207       -1.66412779580063
H            3.42030137878805       -2.29340090818009       -0.16598802593480
