88
 energy: -18.442175070560 gnorm: 0.000537611015 xtb: 6.6.1 (8d0f1dd)
C           -0.24797912044474       -0.69916100971450        2.29102073795643
C            1.04175569340406        0.11653040918187        2.08381415954907
C            1.71288017960587       -0.36137781095347        0.78145492183401
C            0.69428318449248        1.60882228319398        1.93272235312130
C            1.96130514505168       -0.06840293492318        3.30059982316695
C            3.24890316663755       -0.58125461487010        3.19143385703810
C            4.04951757968412       -0.73415972156753        4.30119865994554
C            3.58548284111310       -0.37796055012247        5.55737250388216
N            4.42239503017816       -0.54939751168059        6.72021345954622
C            5.39310904729467        0.34117932354708        7.21486355117935
C            5.69111022471322        1.64378445171708        6.66805724850320
C            4.98472641360176        2.31964736805107        5.71014770717066
C            5.50880558379486        3.59340060253994        5.39869067372511
C            6.63657483869660        3.91922702786668        6.10312452021262
C            7.39808659767734        5.15525153903828        6.00685432997183
C            6.87335111196711        6.29796326027315        5.39524077248008
C            7.60400330907438        7.45851231543572        5.32744034590377
C            8.89246167469847        7.52482666727365        5.85628141774359
N            9.65529041633203        8.73536935979972        5.78012522769410
C            9.01199027529667       10.00200391627541        5.98426170705537
C            9.40381105004168       11.12701114402215        5.26327815081574
C            8.79249326349953       12.34285954935591        5.47218828727972
C            7.77887851164920       12.45766647813561        6.40368434742517
C            7.37724991634014       11.35027460329677        7.12506096684629
C            7.98666290654279       10.13340971998895        6.91741390162999
C           11.06498473416897        8.67737192165906        5.51781567229793
C           11.94231543148874        9.57323582649809        6.12335100972538
C           13.29363797517202        9.51504990705151        5.86638394789339
C           13.79379955912750        8.56159010843957        5.00098359079651
C           12.93646758806245        7.66501231755106        4.39345165273304
C           11.58496174883213        7.72117801872967        4.64917550942774
C            9.42045235949280        6.38680060806789        6.46411855817966
C            8.68592092878515        5.23030747026583        6.54307226315616
S            7.05215164369737        2.60287595090899        7.17466694840602
N            6.01443283721501       -0.16430232210000        8.27184266333049
C            5.46713661693703       -1.37952352908883        8.49455510822348
C            5.77852507093979       -2.32513229233347        9.53547689783472
C            6.76032992381651       -2.04030589121482       10.48583923383020
C            7.04746687561068       -2.93778003903622       11.47972125412409
C            6.35811821061397       -4.14015076983072       11.54388097884125
C            5.38927861879200       -4.43868165254717       10.61799452740910
C            5.06738125890201       -3.54595004957743        9.58619258779289
C            4.03597876360346       -3.83654559794566        8.58385486231979
C            3.30995455890561       -5.03563660282199        8.58705589317221
C            2.34888526269070       -5.29237808406064        7.64163332703529
C            2.07207480719038       -4.36126516066868        6.65148237401273
C            2.76048272655240       -3.17923531114677        6.61619543983984
C            3.74447639896041       -2.89247143964930        7.56813772321494
C            4.47905892863511       -1.65662000285861        7.54816653884390
C            2.30375016114959        0.13512647331380        5.67814927202245
C            1.50811298928644        0.28770364107305        4.56506094182695
H           -0.91079114017054       -0.60564355619707        1.43115639291750
H           -0.79475400681833       -0.36101327068116        3.17010738895720
H           -0.01730336870959       -1.75555804720255        2.42618763278290
H            1.04380289295294       -0.22993341382118       -0.06863249488874
H            1.96975994438887       -1.41888797573571        0.83773726432285
H            2.62029258825515        0.20581695186588        0.57605245491264
H            0.05583189897226        1.77486424533635        1.06539877347738
H            1.59862805617360        2.20327940440187        1.80508408505693
H            0.16890496348532        1.98382207865868        2.81000180581480
H            3.63457293357640       -0.86504861159311        2.22859080175543
H            5.04555168601535       -1.13166657295498        4.21180129213298
H            4.09966380754812        1.92060889933311        5.24374252795312
H            5.06541130593533        4.24346043706173        4.66091494384608
H            5.87843516683394        6.26792547158677        4.98741886916347
H            7.19423235513092        8.33350031351822        4.85369050344797
H           10.18844417045533       11.02921854491558        4.53351252305455
H            9.10529299622173       13.20630533173016        4.90803912967458
H            7.30228268609887       13.41031893306866        6.56789902610291
H            6.58773156974789       11.43925262260942        7.85337490833223
H            7.68625404410342        9.26912739577195        7.48361884094744
H           11.54782222847614       10.30715258858230        6.80410232185189
H           13.96228856685968       10.21380064909176        6.34208341168634
H           14.85175498501427        8.51708072073008        4.80014167575171
H           13.32564740152388        6.92143124566908        3.71720501744059
H           10.91066172692054        7.03129120196229        4.17252462002550
H           10.41005682196598        6.43468774439144        6.88389767400249
H            9.09839475873536        4.35915259099011        7.02106356106795
H            7.28313442066910       -1.10170094339767       10.42215108466972
H            7.80554686102919       -2.71027473366636       12.21123152109869
H            6.58566016260890       -4.84342882756297       12.32837060535244
H            4.86980308417037       -5.37633801658486       10.69370190185519
H            3.50500833243145       -5.77486761629147        9.34222817904770
H            1.80454029370186       -6.22242417164203        7.66702885312816
H            1.31561769249593       -4.56909485197072        5.91231707296211
H            2.54867175875332       -2.45684885071610        5.85025800305804
H            1.94545259018111        0.41068984436625        6.65477673641453
H            0.51629894470780        0.68995288060118        4.67674868284983
