24
 energy: -2.902179862119 gnorm: 0.095853079058 xtb: 6.6.1 (8d0f1dd)
Br           3.94374183655482       -0.95707203759335        0.80569340342367
C            3.89386582649199        0.85650985988306        1.13141808527843
C            4.85389642832740        1.66358039230210        0.71209106603277
N            4.85597029814521        2.97906827109643        0.89816746794970
C            5.86532486281599        3.73367947169016        0.38473954133129
N            7.04956559994270        3.07548085763132        0.23988842781484
C            7.83547651291492        2.90341716661403        1.26557107758276
C            8.93269049388700        2.14060402869937        1.32226567149792
Br          10.03563863113617        2.35352596964760        2.83870083269450
C            9.34631189868713        1.22555551715399        0.38845265798056
C            8.70641359541776        0.65877330132387       -0.61351408093698
C            7.40594890630440        0.34516175323821       -0.93237595382445
N            4.52578045249960       -4.90540609455664       -1.21259936552788
C            4.17666504834876       -4.68443919864402       -0.07290699827705
C            3.04680690694696       -5.27348494196569        0.16525320612769
C            2.38943493826847       -5.24077161848144        1.28868716651796
H            4.72302108506751       -2.17555316133616       -2.82204472403912
H            9.13362581323028        4.64894963139711        5.66953552384658
H            5.70273712497026        1.24999554822049        0.18736678038208
H            7.72876809621874        4.75370295791407        3.63711422782476
H           12.43692121458615        1.46922337692444        1.15778177400756
H            6.08629640778790       -1.88421463487305       -1.20278777845415
H            5.21141496071820       -4.83468938476991        1.22168173022255
H            3.91262305594558       -3.08803703076586        0.27777025445364
