95
 energy: -19.122783811253 gnorm: 0.000592120124 xtb: 6.6.1 (8d0f1dd)
C            1.96374393528539        0.30427122078506        1.18315528534396
C            3.37650792362250        0.62568142954494        0.66154870690168
C            4.10552215455719        1.53923313053221        1.66309940464950
C            4.16184486473348       -0.69399080576489        0.54041103560330
C            3.26436303217842        1.34707755050252       -0.68903054203493
C            3.85547198063709        0.87168630045491       -1.84846745209228
C            3.71981937528756        1.54737845931172       -3.04442108179039
C            2.98557503365538        2.71708749827825       -3.14953679864532
C            2.86878916400418        3.44138107064268       -4.50206436830785
C            3.96280461810853        4.51726812061528       -4.58541737919214
C            3.04799752179460        2.45616745083145       -5.67686130813010
C            1.48317021774730        4.09490031973396       -4.66567081424202
C            2.41311755893874        3.22581935946845       -1.97195679450167
N            1.66260592210513        4.44737383018443       -1.92732266633161
C            0.25476124588006        4.35747865998984       -1.86758611812438
O           -0.30663786777331        3.27856758732932       -1.93162839205338
C           -0.51468973450447        5.59862186188806       -1.75260335369151
C           -1.88753402883741        5.55612658074169       -1.73306799779412
C           -2.63232735382846        6.72526072880537       -1.64669629356486
C           -2.00620974215347        7.93655958170155       -1.58317401243740
C           -0.60109943422761        8.04706069905528       -1.59793778676572
C            0.08758896920262        9.30874827734144       -1.53880372927933
C           -0.62313308347787       10.57436243385117       -1.50572777110236
C           -0.07142589079894       11.83111414913182       -1.43921924638769
C           -1.00924962867891       12.88887482630231       -1.45740648423617
C           -2.31717462280194       12.48535298484323       -1.53600511578024
C           -3.49595457015181       13.33320925473813       -1.59968383638578
C           -4.77177449203457       12.76466789865932       -1.57471699741757
C           -5.89809026498134       13.54369616105826       -1.65913001249635
C           -5.79930307709367       14.92943439886525       -1.77878498421546
N           -6.97145613273186       15.74116418901707       -1.89069354067411
C           -8.17689502474035       15.36640329490933       -1.20748301148831
C           -9.42114612064944       15.55407902187711       -1.80416553100567
C          -10.57640108483715       15.19816008157328       -1.14597084056513
C          -10.51124703620793       14.64936118962245        0.11981001681028
C           -9.28488993308550       14.45756849537550        0.72549011860913
C           -8.12818112387710       14.81226239117453        0.06924456036972
C           -6.95470033561229       16.92462535493155       -2.70284223689656
C           -7.65422459878203       18.06445753078325       -2.31451185661989
C           -7.64350462261705       19.19616747242221       -3.09797760167684
C           -6.93516482279549       19.21102457568559       -4.28355584689148
C           -6.23737909317931       18.08822666525165       -4.68341826439726
C           -6.24680749005740       16.95529826612676       -3.90186483658255
C           -4.52787877706329       15.50233022814016       -1.79910306361357
C           -3.40093870974468       14.72390832464230       -1.70971305024484
S           -2.36115837903286       10.73977503624598       -1.56186635126178
C            1.47549447194697        9.29653377182837       -1.53980736080473
C            2.19799614561093        8.11895642625967       -1.61126295538161
C            1.56605374334902        6.89953266607958       -1.68812079147136
C            0.15185861735559        6.84776535174416       -1.67913299952276
C            2.35240107089490        5.67133063323689       -1.78799848363828
O            3.57036148668366        5.70777948123476       -1.76753839536241
C            2.55639334000777        2.52878422713335       -0.77755957010834
H            2.00972620594702       -0.23138330644373        2.13075426345275
H            1.42291852617414       -0.31635709747377        0.46954851554721
H            1.38325827755449        1.21182046366366        1.34149096897649
H            4.21243747727123        1.05092647621683        2.63113499495543
H            3.56186869764500        2.47026689073663        1.81661222971136
H            5.10113955645387        1.79077323813940        1.29928212113330
H            4.22133802921829       -1.19825020730279        1.50448919832634
H            5.18111789424092       -0.51438296016380        0.20019497345005
H            3.67760288277639       -1.37486132384572       -0.15888600355618
H            4.42980350095813       -0.03720247386044       -1.82379919668903
H            4.20478429442894        1.14576138265076       -3.91579651817846
H            4.95216286537697        4.06679507754412       -4.51657159049008
H            3.86857314176009        5.22843812014521       -3.76711709897710
H            3.90307906628660        5.06753068867833       -5.52366526574750
H            4.06253324616992        2.06323085190587       -5.72011271332595
H            2.85708174569905        2.95088899947487       -6.62869304650189
H            2.35524837385148        1.61974584689975       -5.59037568225877
H            1.37184579020216        4.94993319572917       -4.00319112346412
H            0.69146522786376        3.38278813573840       -4.43415884548825
H            1.33416688124037        4.45404379109967       -5.68332479914346
H           -2.37348133091622        4.59703511470396       -1.78958413667426
H           -3.70873587149454        6.67261951822827       -1.63333625935393
H           -2.60537933703415        8.83302041791832       -1.51923311516210
H            0.99084554696771       12.00872466058545       -1.38586402810232
H           -0.71457382594769       13.92578610594660       -1.41888310217497
H           -4.85910573826834       11.69555018567563       -1.49348287658453
H           -6.87407389027476       13.09118112998924       -1.65333730040944
H           -9.46440362701557       15.97397971740527       -2.79384086243272
H          -11.53301229549900       15.34698789286871       -1.61950466018535
H          -11.41633459278800       14.37148207220613        0.63459435586937
H           -9.23346195377998       14.03097393703345        1.71384689214966
H           -7.17024619423134       14.67521744105302        0.53965157255356
H           -8.19805502483761       18.04898165112766       -1.38628260847204
H           -8.18818557235437       20.07205267691397       -2.78553364446467
H           -6.92746790817712       20.09751192050648       -4.89634637307804
H           -5.68625023045909       18.09810269994571       -5.60951130763847
H           -5.71554730930752       16.07332604473474       -4.21424924394459
H           -4.44393880622835       16.57203351553270       -1.87802447270941
H           -2.43079555498280       15.18728387534872       -1.73459983754990
H            2.01009067961688       10.22805764361657       -1.49335355288331
H            3.27457751100848        8.13656233319512       -1.61405469538301
H            2.09233832760558        2.94422796123002        0.09810267182275
