75
 energy: -14.827190925854 gnorm: 0.000856203836 xtb: 6.6.1 (8d0f1dd)
C            0.01177138687185       -0.55881614283738        0.72868364957546
C            1.47448955462966       -0.09527302619806        0.85570176603806
C            1.96920585116701        0.44647102249587       -0.49732286485715
C            1.53497254898996        1.04467645684866        1.89072875412371
C            2.35206279216087       -1.28434266784708        1.27237222751979
C            2.39820786593298       -2.42352587707433        0.48686586454894
C            3.19424971223396       -3.49667915304838        0.83082007284495
C            3.99169415623834       -3.48557906494108        1.96269878363057
C            4.85625635187067       -4.70898659209579        2.31471722323674
C            4.06816000560397       -5.61256320681786        3.27627409803249
C            5.21487017881875       -5.51721872335266        1.04961378635538
C            6.18305192037996       -4.28250235166856        2.97134024972424
C            3.92901617476739       -2.34671174863898        2.78259638513584
N            4.66671790808967       -2.21825537083714        4.00586159432478
C            5.82521690726915       -1.41228483127841        3.99769335288151
O            6.23577311414787       -0.92108210399988        2.96290925066634
C            6.53541755569666       -1.20305220607895        5.26252947945216
C            7.68779884118844       -0.45861805721581        5.28763885348721
C            8.38158823820997       -0.26483606860602        6.47594040292267
C            7.92430808344244       -0.81468773321367        7.63730158085669
C            6.74502283753372       -1.58602958230445        7.67711806865821
C            6.23636357444443       -2.17897927492447        8.88412537390784
C            6.92470880508335       -2.04465923566931       10.15635554656979
C            6.52684767829522       -2.54901800982550       11.36994066775527
C            7.41290692908137       -2.28221733947051       12.43863665934187
C            8.52313578737894       -1.56096883110884       12.08684299910446
C            9.61402767117123       -1.14819704568982       12.95669234989232
C           10.66819336056565       -0.38897907434160       12.44595900350337
C           11.71237721999685        0.00202725395374       13.24960644452948
C           11.73346823206295       -0.35426678602857       14.58451454403101
N           12.84673267302276        0.05635653173033       15.43690380766815
O           13.72119141449980        0.78872608522040       14.95345545469269
O           12.87140678257698       -0.34460979190706       16.60887013952776
C           10.69792938577521       -1.10458671816402       15.10815939615658
C            9.65092168248503       -1.49834498615871       14.30885511657794
S            8.43545153966384       -1.20129782273647       10.38096125502906
C            5.06099450741797       -2.90979073700589        8.80894700509731
C            4.38243324039767       -3.08592346704472        7.61511157187144
C            4.85143974601145       -2.54122890643921        6.44458132096730
C            6.04254860055748       -1.77751598324992        6.46101543934627
C            4.12599188946565       -2.75733331631378        5.19272803611552
O            3.09197047472325       -3.39976166594873        5.17513966911504
C            3.12469602507591       -1.27264468672368        2.41685833140377
H           -0.63843758595917        0.27278451755152        0.46015867326162
H           -0.34306768296549       -0.97407674211711        1.67112972454851
H           -0.09715688800128       -1.32542992510318       -0.03661874381305
H            1.37731791104600        1.30395214841132       -0.81479176587170
H            1.90158205886744       -0.31252512519652       -1.27508608857634
H            3.00973680172976        0.76128636624497       -0.42732311539913
H            0.90016021672223        1.87607248486369        1.58714020136710
H            2.54951349128849        1.42702019966400        1.99556893447299
H            1.19006981154378        0.70504503723273        2.86650786587272
H            1.80474910410497       -2.46999718057989       -0.40941042174695
H            3.18771981041451       -4.36304985355218        0.19466317181162
H            3.15144950940201       -5.96795632092576        2.80792946780022
H            3.78680311865020       -5.06832982030385        4.17562431616745
H            4.65737216310398       -6.47912489561000        3.57299119427558
H            4.33602909394434       -5.98359400939513        0.60801594158401
H            5.91487853702653       -6.31718695624386        1.28756307993431
H            5.68081356084836       -4.87735109705403        0.30129691971757
H            6.01722130983104       -3.88879966479552        3.97101435776888
H            6.67461737554941       -3.50984330906439        2.38088430186402
H            6.86468614122637       -5.12666411755915        3.06663887800208
H            8.04340246165374       -0.02958664204245        4.36629942137629
H            9.28431764361145        0.32380262394648        6.47575043186500
H            8.47911104267584       -0.65020679091516        8.55045260277551
H            5.61787015580980       -3.11280685823201       11.50690577903331
H            7.22633069933174       -2.62429401238433       13.44424241088234
H           10.65331241239612       -0.11318978942468       11.40612947372321
H           12.52651237230432        0.58783309931699       12.85754427830246
H           10.73285083201587       -1.37470637465464       16.15019297742026
H            8.85337849056155       -2.08531857055365       14.72806841522498
H            4.66395570773018       -3.36064365527242        9.70028857848529
H            3.47123059776467       -3.65855537754589        7.58222594349415
H            3.12725052071837       -0.41783855217090        3.06671008298433
