73
 energy: -14.346433185289 gnorm: 0.000798855864 xtb: 6.6.1 (8d0f1dd)
C            2.20105893003588        0.33644576695799        0.83785232490838
C            3.56790480938834       -0.37201087050342        0.86383201260203
C            4.64789197480384        0.65269206446777        0.46686564321279
C            3.86554213679519       -0.87629036636286        2.28602937779430
C            3.54520959232112       -1.56896717213921       -0.09762597235029
C            2.56119590344544       -2.53701074950108        0.01438534193863
C            2.52280324238409       -3.61852909582825       -0.84206850665558
C            3.45736855440796       -3.79002288283763       -1.84943153391499
C            3.37254915692344       -5.00908068420596       -2.78400286180809
C            4.21147003453381       -6.15054881829689       -2.18898103786600
C            1.91253843552501       -5.48564047705151       -2.93765859040320
C            3.88839595138218       -4.66696418350806       -4.19485008763387
C            4.49195854772719       -2.84347319029794       -1.93560340243029
N            5.58074541867156       -2.94849032861467       -2.86347865197260
C            5.57872547202000       -2.09553242120012       -3.98906371688399
O            4.62008983113565       -1.38634467176971       -4.23281316853855
C            6.75357622213786       -2.09924463528805       -4.86619889651373
C            6.77894515801993       -1.30150293823629       -5.98222666585360
C            7.88288742337271       -1.29754449721778       -6.82717503983877
C            8.95844521449989       -2.09128949748509       -6.55655376073748
C            8.99386357640046       -2.93197612675246       -5.42512369506299
C           10.11426113431419       -3.77712375673280       -5.11099830534024
C           11.29942541681909       -3.83237826606392       -5.95153708875139
C           12.42456650406753       -4.59075329557193       -5.74065738766728
C           13.42278244902989       -4.45387099709273       -6.73329125764025
C           13.10194771332719       -3.58474939353638       -7.74176092393863
C           13.91704942751162       -3.24111573982427       -8.90058913594299
C           13.41959975561113       -2.37551389860840       -9.87444383413657
C           14.17174805872959       -2.03975843548492      -10.97796090287067
C           15.43993117443832       -2.56106723389805      -11.13349914500139
C           15.95290306970123       -3.41800343288575      -10.18070939327651
C           15.20248056976241       -3.75609845189072       -9.07615037607954
S           11.51676778308446       -2.92539958993164       -7.42714738074902
C           10.04267099944783       -4.55835137945321       -3.96867797050665
C            8.93432376527626       -4.54416016591866       -3.13803150386080
C            7.84885224599971       -3.74993969797394       -3.41575002004064
C            7.86412995127826       -2.92906459415722       -4.56861155243332
C            6.68971441259659       -3.75394315876466       -2.52249744689513
O            6.68099262636156       -4.44025589817884       -1.51664438349857
C            4.50434914929439       -1.75143307964541       -1.07416404884677
H            2.20483817620420        1.21384097473775        1.48377110891054
H            1.40425726618437       -0.32142215982879        1.17991588662826
H            1.95709899379050        0.66200443897732       -0.17251021296503
H            4.62564636581575        1.51518934515031        1.13210813762935
H            4.48944456627359        1.01249635718123       -0.54918557511921
H            5.64461487319818        0.21785554911017        0.52792623245891
H            3.89932497600792       -0.04983295641077        2.99507094373619
H            4.82602792040821       -1.38901652163457        2.31785408824657
H            3.10233402068470       -1.57623077985574        2.62233092169037
H            1.81615539163103       -2.44549342861327        0.78534458046458
H            1.74316765898473       -4.34730116523311       -0.71255253456669
H            3.82941445926983       -6.44199789384212       -1.21146991167872
H            5.24652753158230       -5.84022560759162       -2.05842937084193
H            4.19734840396255       -7.02708562615048       -2.83562769067494
H            1.52143445540992       -5.89156254696609       -2.00629089023348
H            1.83977742743544       -6.27500720181028       -3.68510798459009
H            1.26965027775674       -4.66510685952130       -3.25435325346147
H            4.96544021657877       -4.51748273181087       -4.19343723596624
H            3.42096769502290       -3.75486665057524       -4.56515176958520
H            3.67545923126279       -5.47131173682174       -4.89800137018734
H            5.92596797416300       -0.67773585979269       -6.18853575540093
H            7.88510612985905       -0.66338751220717       -7.69853563454707
H            9.80662032755764       -2.07124681109737       -7.22517964132651
H           12.54716099863961       -5.24502556448122       -4.89226094100914
H           14.35503904620868       -4.99507780597427       -6.69605704707091
H           12.43029183442969       -1.97141264148078       -9.75074942469314
H           13.77006609022475       -1.36982574503887      -11.72055745983522
H           16.02904425722258       -2.29872430459097      -11.99700431032211
H           16.94374563024734       -3.82411262516654      -10.30209354129871
H           15.61122321689279       -4.42294193271686       -8.33793712787725
H           10.86938448249217       -5.19667719962125       -3.71435658903433
H            8.90477115382349       -5.15831758887003       -2.25415276983383
H            5.30538715818709       -1.04595096618258       -1.19208091217273
