20
 energy: -3.056654554933 gnorm: 0.000897315593 xtb: 6.6.1 (8d0f1dd)
C            1.14078593944053       -0.13844145572351       -0.00550706526358
C            2.35972388764892       -0.11715224047717       -0.01646611625870
C            3.75448380148912       -0.10104402948771       -0.03683380322260
C            4.45309720035059       -1.30994623536452       -0.04277778953199
C            5.83310984001639       -1.34436332802576       -0.06767705912749
C            6.56489832107570       -0.17417179919455       -0.08802477054028
C            5.91976406788705        1.07496004356214       -0.08291668623941
C            6.64037176462098        2.28345311764102       -0.10596628066211
C            5.98403559683289        3.49423950000239       -0.10075393400595
C            4.59965171179902        3.54059191790752       -0.07233485023068
C            3.86141322569273        2.37557633777370       -0.05023649014389
C            4.49153769104528        1.12107248441626       -0.05567508738604
H            0.07159036152625       -0.15954971951858       -0.00331395425703
H            3.89237303076856       -2.23034774763553       -0.02788476171863
H            6.34414053533636       -2.29476179483351       -0.07184227684352
H            7.64102844129576       -0.21059252536153       -0.10897347184098
H            7.71668382306463        2.25310811603773       -0.12868539563181
H            6.55068648747219        4.41252075085427       -0.11844850061231
H            4.09640051886030        4.49508483248360       -0.06780634599994
H            2.78626375377376        2.42101377494750       -0.02889536048061
