122
 energy: -24.608124997025 gnorm: 0.000794576408 xtb: 6.6.1 (8d0f1dd)
C            1.73316501920088        0.68736604154364       -0.40216226282735
C            3.11134477508043        0.01132174136030       -0.53192379818840
C            3.22299971223497       -0.59162021739484       -1.94598600669496
C            4.22315477124793        1.06283987900047       -0.36087810123368
C            3.25746331551852       -1.06135867940729        0.55868460769818
C            3.52015026445719       -2.39466213925213        0.26611997984562
C            3.64033069955102       -3.33152346460344        1.26633861528517
C            3.49464890134871       -2.97631671015102        2.60523181172828
C            3.69084333278523       -3.97473401672031        3.67636553926019
C            2.97828510230576       -4.08082720662727        4.84088871520730
C            1.79107734180729       -3.38354094463804        5.27382775916948
C            0.91975907496809       -2.75110631755616        4.37702066640002
C           -0.20373895643823       -2.10361682505848        4.81974618238739
C           -0.51788270795022       -2.05806803580611        6.17894806427603
N           -1.67901226266087       -1.36481689352984        6.63809094852760
C           -2.84864122421139       -1.28688027610304        5.80749859058418
C           -3.59071433212869       -0.11099832000723        5.73241904850832
C           -4.71252057530783       -0.03867066005191        4.93783117398029
C           -5.11469304472293       -1.13872759798097        4.20566548419985
C           -4.39053821847326       -2.31302269453614        4.27138741071689
C           -3.26829394797490       -2.38780241828091        5.06494665472439
C           -1.68594645014678       -0.73101203310940        7.92679023752429
C           -2.83364215679992       -0.73666394704054        8.71536075836243
C           -2.84325656510923       -0.12051003696131        9.94639920108485
C           -1.70798000750543        0.51344992724754       10.41217532970919
C           -0.56227326202691        0.53010422243333        9.64106481433352
C           -0.55049809496386       -0.08496939918272        8.40960309768879
C            0.33304766755096       -2.70557307083249        7.07583817532093
C            1.45446732090587       -3.35608275159664        6.63423483075640
S            3.74731708775685       -5.32144158112567        5.92154558107560
O            2.87631865352168       -6.55333615685493        6.03058879367952
O            4.30984572843211       -4.62260031878768        7.13759769423155
C            5.02575450072291       -5.67534398011525        4.69812356718223
C            4.80891479713726       -4.89306897777306        3.61221021763938
S            5.99917351263464       -5.21947926163769        2.39259753875889
C            6.80145918447171       -6.42613135558663        3.37352282511532
C            7.94576947974906       -7.18294436195941        2.88440329438001
C            8.84376909664254       -6.59885158207181        1.98568325681938
C            9.92922160508716       -7.29428483096905        1.51727871418268
C           10.16218320683070       -8.61052732233630        1.91647597623536
N           11.30755298269315       -9.32672701124729        1.44836728621355
C           12.53413987517857       -8.63196137510179        1.17516550673359
C           13.33750846740987       -9.00522121056282        0.10088130668529
C           14.51679792080226       -8.34361962344814       -0.15732535074964
C           14.91633520609038       -7.29864904588535        0.65273261784015
C           14.13175038889101       -6.91806911536367        1.72380732894627
C           12.95213113542641       -7.57817623419457        1.98394412557228
C           11.24840351531862      -10.75066435934859        1.27187948768699
C           12.32961428654190      -11.55527218835165        1.62175353462371
C           12.27321934888371      -12.92008026147709        1.45133625999376
C           11.13768053829865      -13.50611169387277        0.92700521077869
C           10.05770569299182      -12.72116087696458        0.57308061479281
C           10.11141512833794      -11.35619195177354        0.74310019852314
C            9.25242123968802       -9.20785600796643        2.78908613937749
C            8.16691172149922       -8.51338176348504        3.25823633331793
C            6.16205952468285       -6.53476994422007        4.60765407758088
C            6.58351211307188       -7.38819490010165        5.73847723087740
C            7.92602935984563       -7.57462313370190        6.05240803638396
C            8.30039780026813       -8.36997313458691        7.11181586044362
C            7.35495164628746       -8.99944253140663        7.91109751279302
C            7.81342742308202       -9.87571597817618        9.08705855828557
C            8.69990539301033      -11.01816946970388        8.55651436065581
C            8.61537911805130       -9.01347201632862       10.07953766924590
C            6.61852583821708      -10.49681964559534        9.83697834438491
C            6.01388035634625       -8.78770345573533        7.61573329902262
C            5.63502620238606       -7.99486963935527        6.55643297138510
C            3.26397940913568       -1.63481285245159        2.90004381250241
C            3.14013670756383       -0.70238399628976        1.89558755231278
H            1.59236010176538        1.43762336944388       -1.17969999378822
H            1.62283358679787        1.18321203366786        0.56105002100108
H            0.93395479779973       -0.04743530337768       -0.49390013921638
H            3.10038293967718        0.18008869246830       -2.70550953918683
H            2.45291086757332       -1.34410934394019       -2.11317141827417
H            4.19794750875366       -1.05254790889089       -2.10107444148914
H            4.15642051961843        1.83024589214613       -1.13149260024105
H            5.20614476106697        0.59822039261084       -0.43139848957489
H            4.15538579109791        1.55602526427886        0.60778055386371
H            3.63291869648866       -2.70758571869154       -0.75654040361048
H            3.84982580950083       -4.35861960612262        1.02255439226553
H            1.12683846780313       -2.80103327127746        3.32313338118764
H           -0.85484502911114       -1.60895246721696        4.12060694365559
H           -3.26742107434723        0.74407165306553        6.30002623354734
H           -5.27731134819735        0.87777849800036        4.88663713857553
H           -5.99324792454861       -1.08136997725464        3.58413093936740
H           -4.70475701415387       -3.17240250632278        3.70196910365668
H           -2.70563125309574       -3.30277035094853        5.12983367188617
H           -3.71240581147314       -1.23868729572956        8.34989768680567
H           -3.73737081035444       -0.13399103519199       10.54798440638347
H           -1.71596994098349        0.99480669347951       11.37639500036706
H            0.32373391544330        1.02566775814959       10.00290803640944
H            0.33558604658960       -0.06530371315109        7.79940656618428
H            0.08837425643235       -2.69678418288273        8.12345036749478
H            2.11246492367165       -3.84355790417315        7.33357484040750
H            8.67302812578662       -5.58391168383219        1.67172389314530
H           10.61205660379528       -6.83322520286017        0.82522336408499
H           13.01672031619885       -9.81535236174247       -0.53036738179333
H           15.12856940321374       -8.64081427911874       -0.99335945925138
H           15.83961682976302       -6.78110004258353        0.44978009810210
H           14.44376475158709       -6.10407961619903        2.35754109450529
H           12.34240989550667       -7.29359838646122        2.82357720092171
H           13.20795780571389      -11.09274203500272        2.03681300491175
H           13.11570456976372      -13.53236395648514        1.72854726606548
H           11.09440702952396      -14.57468381022827        0.79373557677150
H            9.17200272940670      -13.17772367329771        0.16247494634167
H            9.27761053434932      -10.73775828031625        0.46014032606951
H            9.42353723166850      -10.22281829769496        3.10260303093848
H            7.46490396153582       -8.99352368356232        3.91727915598083
H            8.67433993021727       -7.08181425909074        5.45601904712669
H            9.34627233485840       -8.50302077456572        7.32732863743003
H            9.59031706507339      -10.63286667204851        8.06191276516211
H            8.15354623298636      -11.62611172887911        7.83608330607149
H            9.02553989103895      -11.66798642014994        9.36824680829285
H            9.50594023400175       -8.59617586277023        9.61188183617153
H            8.93492416231965       -9.60239827608692       10.93871272658939
H            8.00978365955770       -8.18452036144929       10.44443701689621
H            6.02252654332955      -11.12370658884058        9.17450535028104
H            5.97422044276823       -9.72489044183388       10.25645691579660
H            6.96214003410853      -11.12140698307438       10.66109037543344
H            5.25109019828765       -9.23655121288542        8.22653079974125
H            4.59139728121383       -7.80241215444132        6.37134380544904
H            3.19540938607012       -1.33295191024988        3.93110506915208
H            2.95665934706555        0.32662528412736        2.15135629196766
