119
 energy: -22.300115343888 gnorm: 0.000502947955 xtb: 6.6.1 (8d0f1dd)
C            0.06111508859434       -0.27343221982955       -0.58738593006816
C            1.38828993043418       -0.01330587041076        0.15144842258779
C            2.32709453672446        0.75700597748307       -0.79561714690122
C            1.09145975344468        0.84224743150790        1.39678465804767
C            2.06642179549642       -1.32260932800580        0.58389225341684
C            1.51399437935307       -2.57189888446443        0.32348232575345
C            2.15186317104492       -3.72729376135182        0.71269581507005
C            3.37870956336400       -3.68289913908580        1.37494214196831
C            4.06784595430936       -4.91291017757132        1.78554067772098
C            4.76132869871535       -5.06796555721382        2.97858041882590
C            5.21840245841938       -6.39613456689225        3.06188113387873
C            6.02461873772413       -6.99662730692778        4.04425005771479
C            6.45674050613940       -6.26420447809941        5.24904498047921
C            7.78919936898757       -6.29486221987498        5.66999308260424
C            8.19008085478998       -5.61332405430608        6.79637691648428
C            7.27339094460800       -4.88540322875056        7.52945276135060
C            5.95176259824401       -4.84094265419233        7.13074232745821
C            5.54607700263438       -5.52068857255066        6.00491924074531
C            6.40186489294386       -8.33119251597626        3.81623727559633
C            7.12940369196006       -9.20238877144329        4.64781101625314
C            7.18980904898108      -10.44866389013496        4.03817962491199
C            7.94375302148854      -11.59502942889783        4.56069215719151
C            8.63222492568724      -12.45713903714033        3.70749980778870
C            9.34627220708820      -13.52249989510513        4.20475121510704
C            9.41413271345983      -13.77197479735433        5.57020799201567
C           10.22153132400290      -14.97426680409843        6.08369604194119
C            9.63677224614954      -16.26996621345095        5.49156932811730
C           11.69134768714091      -14.82281466963932        5.64996320729839
C           10.17722920453886      -15.07917644023679        7.62051568951247
C            8.73916310871073      -12.90431305321565        6.42225021028106
C            8.02268561467678      -11.83608191315128        5.93179630777761
C            6.44548446565650      -10.37451310063502        2.80333012880816
C            6.06921047430872      -11.49024244863663        1.94079069347189
C            5.81505007355136      -11.30997238564957        0.58297056781284
C            5.46917154697249      -12.36492949444656       -0.22697090418298
C            5.34940231692002      -13.65287944863916        0.27942875579393
C            4.96894059045933      -14.80676706696605       -0.66066921778912
C            3.59344832474846      -14.51781041959727       -1.29017249255986
C            6.03123824742929      -14.93014335413723       -1.76896996806610
C            4.88917841287091      -16.15135622757388        0.08790787684687
C            5.57789585437813      -13.83621296468928        1.63871426880989
C            5.92443315379057      -12.78180975124239        2.45155423876567
N            6.03302886500373       -9.08535521413397        2.70582611386373
B            5.16025258260856       -8.48106981803443        1.59313497872946
F            4.00092838399335       -9.25126837967758        1.52782885343776
F            5.88059652025172       -8.46977158134018        0.40027727169566
N            4.78281508374931       -7.02167097521667        1.89686171390214
C            4.11995763214959       -6.16880738072633        1.07540349241569
C            3.70695851672111       -6.40967899342160       -0.30385034039068
C            3.32519159617394       -7.67529248847975       -0.74379262497362
C            2.92969585674429       -7.89296078392065       -2.04201780523732
C            2.90429888107012       -6.86015066020297       -2.97072142530356
C            2.45286234775924       -7.14260121810292       -4.41175601666013
C            3.39129956687582       -8.18804217397991       -5.04240975106106
C            1.01035297703327       -7.68190371104018       -4.39700363829828
C            2.48653268016489       -5.87044982091105       -5.28094644174372
C            3.30744573216365       -5.59946530907321       -2.54494625942328
C            3.70431583667959       -5.37932537650398       -1.24639696581437
C            3.92327432800630       -2.43005361342280        1.65340204987950
C            3.27984718183344       -1.27878055111821        1.26054331228865
H           -0.40367243874760        0.66512976646216       -0.88865668068068
H           -0.64685345979176       -0.80086692779692        0.05130166935882
H            0.22299037338468       -0.86458288656163       -1.48837543622801
H            1.86355913807946        1.68237704554295       -1.13667922970861
H            2.56635206594387        0.15612783670378       -1.67263759194532
H            3.26286272120070        1.01604031302837       -0.30220403503824
H            0.59331736016831        1.77160921603365        1.12176647344298
H            2.00671441339926        1.09990948217049        1.92796533046916
H            0.44370087736747        0.30367998380615        2.08795851072056
H            0.57290415123661       -2.64567729277339       -0.19176565876504
H            1.70637013867152       -4.68599631626600        0.50952882433783
H            4.91847273501554       -4.30058850831288        3.71504481185284
H            8.50736569672463       -6.84366036525564        5.08539822462046
H            9.22231642482755       -5.64553552003580        7.10522674302063
H            7.58916962277817       -4.35299702385780        8.41185984787479
H            5.23553558965689       -4.27563805961445        7.70466291326866
H            4.51192158239913       -5.50548403879181        5.70670157624119
H            7.57136072726195       -8.94680932177055        5.59401090083246
H            8.60251866043629      -12.27295656382503        2.64737530698472
H            9.86364515746632      -14.17489391921515        3.52291977828578
H            9.69191156825764      -16.26898105626618        4.40379668490299
H            8.59031235529585      -16.38365855402053        5.77332294618402
H           10.18017502971033      -17.14317919877267        5.85168529721401
H           11.78455681469690      -14.80214406866810        4.56501732059523
H           12.29464157033277      -15.65136762267799        6.02002985838198
H           12.11385575828464      -13.89710029617901        6.03969668118803
H            9.15493554482681      -15.20518218770600        7.97601267338526
H           10.59982864140596      -14.18963871900212        8.08687546604573
H           10.75377444349765      -15.93707974337496        7.96589935848615
H            8.77204873846533      -13.06426713921129        7.48524621282307
H            7.50114646807601      -11.17966052268063        6.60690111945443
H            5.87620552876412      -10.31947664071877        0.17621993473957
H            5.28271649085773      -12.18822683411083       -1.27208605261384
H            3.61159896148770      -13.60207004892195       -1.87956503013898
H            2.83358900141302      -14.40282753190479       -0.51766755929226
H            3.28680022678587      -15.33082184109588       -1.94781291730859
H            6.08832748852354      -14.02111060463250       -2.36619583087238
H            5.79978568495928      -15.75586643164812       -2.44137909120865
H            7.01624958006567      -15.11057985602483       -1.33923353051770
H            4.13334055740767      -16.11953334475381        0.87216296799396
H            5.84752058491980      -16.40623579315528        0.53968878884198
H            4.62162454981071      -16.95795488406790       -0.59440214193767
H            5.48131844065285      -14.81635074442009        2.07074157814372
H            6.07547271148179      -12.94468861550753        3.50433067310871
H            3.36234644266069       -8.49281193654652       -0.05058368905553
H            2.64006552931621       -8.88386987075773       -2.34608663619253
H            3.35998239840946       -9.12956094527682       -4.49576097145433
H            4.42134243290029       -7.83269668681822       -5.03720491345365
H            3.10962138342267       -8.39287976500671       -6.07494834385609
H            0.94111446889593       -8.61387369630623       -3.83765512242178
H            0.65543296877214       -7.87413411975421       -5.40921905698742
H            0.33545604452232       -6.96274914105725       -3.93358658052380
H            3.49461331249726       -5.46101989394212       -5.33855793630675
H            1.82304099263673       -5.10434842442689       -4.88063265546156
H            2.16189455610716       -6.08869328164048       -6.29809837207448
H            3.31548018608869       -4.77697108742321       -3.23779247705691
H            4.03523934894605       -4.40028739421591       -0.94718109901672
H            4.86812732220711       -2.37400346631692        2.16595262099446
H            3.72708127526418       -0.32439415865857        1.47821307044893
