86
 energy: -16.586626956578 gnorm: 0.000583475225 xtb: 6.6.1 (8d0f1dd)
C            1.00700276408903       -0.31298984576878        0.38884636788673
C            2.52847165819734       -0.13540889941834        0.22915530007667
C            3.22520985097304       -1.38392534449863        0.80454094501900
C            2.88448324282581       -0.02533921816986       -1.26486275614801
C            2.96899014635240        1.14738579955287        0.95169694993818
C            3.90028620911188        1.14043671809751        1.98328886065882
C            4.26998852784980        2.30704335340540        2.61242691762584
C            3.72098269277800        3.53114503723204        2.23793874292043
C            4.10955497941698        4.73643651760878        2.93890945415166
C            3.91433868383150        6.03911745459411        2.65124418121606
C            4.47726588791355        7.01805982101927        3.61512810087984
C            4.38499948877007        8.41522029308510        3.51047374136880
C            4.96421781911841        9.17497442743686        4.49209236661861
C            5.64809127410228        8.62743804321457        5.58734895896305
C            5.74149127870127        7.23041618378629        5.69109772037777
C            5.15637515230256        6.47062159097753        4.71323646569601
P            4.99941420834384        4.70114147268890        4.49531679278855
O            6.35403154492442        3.95720708038671        4.38559431100391
C            3.96293927220022        3.99581928264399        5.77483726884204
C            4.45996114059515        2.96701383589153        6.53655683101798
C            3.66862834606609        2.40449469721072        7.52243020382481
C            2.38886209867814        2.88165201676777        7.73066720464667
C            1.89829031735276        3.91718702779501        6.95858573440927
C            2.69114923036259        4.47769242192602        5.97352106861350
C            6.21537639210325        9.60472458919087        6.54993979497350
C            6.00638923552274       10.90726422042663        6.27210770889081
C            6.41141926261052       12.10867471474494        6.97049056666884
C            6.90970341374479       12.07938436567769        8.27086811364755
C            7.26140100070860       13.24509413558743        8.91563833483983
C            7.13397006524509       14.48177389717317        8.29333731173272
C            7.50271878583159       15.80058826511069        8.99073853624161
C            8.09189982880717       15.56002729534976       10.39435071050992
C            8.55228487668470       16.55066010758089        8.14883169336166
C            6.23759437068473       16.66623648882907        9.13419402769954
C            6.63944920086779       14.50670709413338        6.99567786018781
C            6.28832876746030       13.34659747975587        6.34491949494802
P            5.03339338892458       10.94069808417895        4.76361912152274
O            5.73494309309325       11.72528610278266        3.62672693089653
C            3.39673663736493       11.58873007123100        5.09474927654280
C            2.64039334201574       11.06244803189883        6.11456715853326
C            1.38126006950086       11.57825762658880        6.36255464494969
C            0.89622179543270       12.61357394549484        5.58660177929223
C            1.66456080887160       13.13518273706869        4.56379518312814
C            2.92394639152594       12.61746850690976        4.31763192310019
C            2.79418347206191        3.54213918539708        1.19821349739341
C            2.42973699135270        2.37056196062610        0.57216993176229
H            0.66823953479371       -1.22797774510202       -0.09608289622527
H            0.46174642651741        0.51913441507214       -0.05398329089910
H            0.73490063655234       -0.36881861010279        1.44237093068792
H            2.89689548929531       -2.28349822021823        0.28468050254954
H            2.99242365915271       -1.51089510666406        1.86127478789232
H            4.30680338692842       -1.31623313264769        0.69310390735580
H            2.60331144862478       -0.93135824614047       -1.80071055319092
H            3.95573442279525        0.12481908807676       -1.39470877797650
H            2.37013023953473        0.81201417745151       -1.73408017510150
H            4.34714272599978        0.21460630166789        2.29853806481440
H            5.00913147192436        2.29619032758924        3.39508168109402
H            3.39830638192278        6.36597425322189        1.75972966345104
H            3.87119741692620        8.87752483347826        2.68720400642079
H            6.25438095331174        6.76814833752462        6.51492987311144
H            5.46258318087554        2.61324665813607        6.35220387083269
H            4.05073255206307        1.59679066704989        8.12475868476796
H            1.77110565985026        2.44456769891624        8.49797512140600
H            0.89965183859318        4.28777479661478        7.12193132774696
H            2.32542140642173        5.28490971205088        5.35870416653601
H            6.77981491484586        9.27778967900669        7.41153189546406
H            7.00748233337923       11.13381675862695        8.77441019235068
H            7.63769390218126       13.18913431361026        9.92122963917824
H            8.99094426149228       14.94689390498941       10.34198597312660
H            7.37112854638443       15.06442259228310       11.04376770270022
H            8.36317363512912       16.50413580266816       10.86586635980203
H            9.44636322096738       15.94242970444201        8.01707217372075
H            8.84651454389916       17.48156649882185        8.63239169476726
H            8.16725602871499       16.79814806656213        7.16093968987560
H            5.47888081749866       16.14424434360744        9.71645592406170
H            5.80827291228816       16.90235009186394        8.16154655267980
H            6.46247008124400       17.60616961526825        9.63702849395731
H            6.52804059567586       15.44989794355337        6.48980462063477
H            5.92745495642567       13.37457872815149        5.33111815364258
H            3.03692135146338       10.25531284462557        6.71009002794702
H            0.78038395641870       11.17238613596392        7.15972465692688
H           -0.08499596075693       13.01529039038076        5.77955825992934
H            1.28594033000283       13.94260921342058        3.95889222135682
H            3.54545194738445       13.00680260288506        3.52613401053686
H            2.35647973273479        4.47652640906397        0.89348748447705
H            1.71065205522433        2.40269548098690       -0.22776195566230
