82
 energy: -16.193799374330 gnorm: 0.000388292986 xtb: 6.6.1 (8d0f1dd)
C           -2.31515454426199        0.34905832052675        2.91558537120775
C           -0.86571380150403        0.34527248072488        3.43466583799217
C           -0.86717415081535        0.88337927167802        4.87891652362112
C           -0.32457702170801       -1.09619120026254        3.45377516502483
C            0.01584463072919        1.19826825497932        2.50922280137626
C            0.78730600511611        2.25483029560047        2.98262991833495
C            1.61903298867332        2.95789050904017        2.14480891142813
C            1.71472007002595        2.63588178753819        0.79020564167704
C            2.66386301154259        3.31359248002396       -0.06932467076701
C            3.63990993036888        4.23585876966910        0.36450906212394
S            4.18443352527082        5.07949751928885        1.79727257758952
C            5.50022211082337        5.88335595276508        0.93255407671478
C            6.44178036566999        6.78569850608465        1.40060268798503
C            7.38574863524322        7.28820138125762        0.53128468710482
C            7.40390804248245        6.90195377404184       -0.80713274515351
C            6.47797084964083        6.00873470893475       -1.28792942698164
C            5.52147411184634        5.49381266159805       -0.41440373908580
C            4.46298667040783        4.55935155479992       -0.72130688458800
N            4.01140729145473        3.84667263111969       -1.79184553383975
C            2.89788768206172        3.09186955677719       -1.47316014690308
N            2.16315158016527        2.34483780102218       -2.30105791928054
C            2.67673782141940        2.29380459458999       -3.53263534377825
C            2.12735360689417        1.60353055219643       -4.67115448301843
C            0.82410295767412        0.98219321170840       -4.79000604882415
C            0.44394319514802        0.33618523933578       -5.96705789913383
C           -0.81905803350627       -0.18471065399402       -6.10973522817123
C           -1.76189939228591       -0.07956613177019       -5.09330316774004
C           -3.17756994042020       -0.63504589742710       -5.31348954672323
C           -3.09916466713245       -2.15723252161117       -5.52722217332811
C           -4.09513647260642       -0.35578582968516       -4.10767459925776
C           -3.79899232672836        0.03125178260948       -6.55607657411279
C           -1.37765745974409        0.54818917919966       -3.91216156295851
C           -0.11294115962505        1.06684939468682       -3.76294790792634
C            3.06695528861397        1.73153941928637       -5.71606839592461
S            3.33179715121923        1.26914408706495       -7.38242425054057
C            4.90298911768619        2.07678319371023       -7.44996030118845
C            5.81015145372327        2.15558585748427       -8.49433944595665
C            6.99069641349400        2.84306639269494       -8.31272266681206
C            7.28186543524559        3.45667844163491       -7.09635603960634
C            6.39383797645035        3.38897226979351       -6.05078762192666
C            5.19597249262688        2.69831164566250       -6.22747541535981
C            4.14587126036478        2.49636636375641       -5.25565047592491
N            3.87514709944605        2.83233241542952       -3.96271684617113
B            4.72261667074978        3.77277894695269       -3.12874159474934
F            4.77190062446692        5.02862499513973       -3.72032032522778
F            5.99994597580346        3.25229985617386       -2.96343794577808
C            0.92682220882883        1.59120586401562        0.31316993218988
C            0.09883249128441        0.88837714976220        1.15582580167240
H           -2.96427901745847       -0.23051608750992        3.57123988779626
H           -2.38150474125780       -0.08238134917985        1.91810779431251
H           -2.70407984340088        1.36557452383223        2.86841549285896
H           -1.50833818937168        0.27585166720118        5.51688996908500
H           -1.23909183550572        1.90670726355475        4.91549244179194
H            0.13434913445519        0.86254281793910        5.30719703071709
H           -0.91670235803958       -1.72733100770148        4.11558438092531
H            0.70710454943466       -1.11464791025195        3.80363913782254
H           -0.34754196990048       -1.53979246401541        2.45948119032929
H            0.74983993807197        2.52280660143915        4.02331200865077
H            2.22948757004704        3.75362344911657        2.53141783255636
H            6.42234359858518        7.08223298625989        2.43487452636546
H            8.11921571045995        7.99096479705228        0.89077769652378
H            8.14835823054965        7.30879648509652       -1.47141317695109
H            6.46130535491570        5.70003823699725       -2.31888547941118
H            1.15177602548188        0.26909857033852       -6.77309247705419
H           -1.08732576307770       -0.67335872790951       -7.03012663560178
H           -2.64993720584121       -2.64454520869105       -4.66262992122144
H           -2.49654174951963       -2.40298468995218       -6.40037569784399
H           -4.09150494733609       -2.58148074986422       -5.67665067486193
H           -3.71590629971153       -0.83454393531553       -3.20566354334992
H           -5.09791464815221       -0.74190812120933       -4.28820451941746
H           -4.18263335017808        0.71427238619273       -3.92233813059767
H           -3.22351004156145       -0.18702620603593       -7.45428458965278
H           -3.83309799026782        1.11349272459340       -6.43561904872211
H           -4.81638182766376       -0.32207230600484       -6.72052560677192
H           -2.07876029437506        0.64371857594659       -3.10247218582420
H            0.16622750514947        1.57229593605955       -2.85728340006240
H            5.58220926975700        1.67670795367843       -9.43068745457342
H            7.70020049495657        2.90461565303963       -9.12137414412753
H            8.21256647663973        3.98543742814309       -6.97301750762907
H            6.59758369249908        3.84227852141128       -5.09611560982208
H            1.00447003870589        1.32403108835172       -0.72416766627463
H           -0.48063328750424        0.07028426239969        0.76497601030325
