130
 energy: -24.236508106840 gnorm: 0.000206999560 xtb: 6.6.1 (8d0f1dd)
C            0.48919237628870        2.88284242254049        0.20632485910771
C            1.73745157181658        2.03219937748675       -0.09840458402235
C            2.83526804599273        2.39797460176200        0.91741204045607
C            1.36076729947891        0.54697369661336        0.05739824110829
C            2.26255354827188        2.27882856709028       -1.52124787101075
C            3.36961191108392        1.57267264699444       -1.97704427763053
C            3.87448414692453        1.77347430448992       -3.24142177999069
C            3.28819210611713        2.69500583988518       -4.10020974225779
N            3.83148463761918        2.93370822310435       -5.40619586535970
C            4.38778018560607        1.84348421733831       -6.16207060869208
C            5.51963820102725        2.04110598382529       -6.94419633193829
C            6.08740868736387        0.99788104412937       -7.63943651906992
C            5.54401101935394       -0.28059618589674       -7.59350669435985
C            6.26403102342067       -1.44196651301355       -8.29875936055545
C            6.55185673700027       -1.07773796020471       -9.76767256776342
C            7.59295936881253       -1.71365837170731       -7.57112005992809
C            5.42091159777044       -2.73206837024658       -8.28046160933405
C            4.39823515518801       -0.46828630740469       -6.82646553330178
C            3.82902110940126        0.57180926076829       -6.12488535705124
C            3.79184953322156        4.23112416223907       -6.01111351774694
C            3.36602509703892        4.32338257081141       -7.32506631196003
C            3.35108502987612        5.50541261444523       -8.05051218926875
N            2.82641657207732        5.47561406445518       -9.37699937087585
C            2.75623191918808        4.21266332563803      -10.06425358435560
C            3.83706574446834        3.33786003079835      -10.06557145141287
C            3.71191966642907        2.06809819560401      -10.58042272346241
C            2.51527491549659        1.62905223734622      -11.13527162705924
C            2.38740352474429        0.17623638145158      -11.61689321631048
C            3.51486843029737       -0.14123278985942      -12.61727024968497
C            2.48740889109292       -0.75719532124515      -10.39656569172898
C            1.03956893241525       -0.07943455995966      -12.31916381602558
C            1.44880326603329        2.52102942651798      -11.16755049396558
C            1.56568998905968        3.78872951791811      -10.64392300213457
C            2.07743818153312        6.57341615832640       -9.92689643562155
C            1.17320162384687        7.28913411201243       -9.15051713653191
C            0.48184208100985        8.35525269064571       -9.68037204051945
C            0.66127326561774        8.74202485526925      -11.00448456938162
C           -0.07986706168033        9.93668535477569      -11.62448805763506
C           -0.95757623166464        9.44191870078133      -12.78854806920592
C           -0.98498302384754       10.64408485224684      -10.59742411058604
C            0.94760185122880       10.95826380976468      -12.14725544062938
C            1.55032314084696        8.00750346612870      -11.78066524664615
C            2.24488313785575        6.94158103678084      -11.25622724190048
C            3.84000141047221        6.68803929321657       -7.42664716299736
C            3.96499093890264        7.92225914841114       -8.11762757215488
C            4.40703803404110        9.04782128169793       -7.50349690224590
C            4.78869504405649        9.03247256627187       -6.13295992010988
C            5.23653682299700       10.17960740432621       -5.47020497189519
C            5.62877938413734       10.15528091944508       -4.13947561672246
C            6.09635491703488       11.45672409093401       -3.46835623023491
C            6.47698117790065       11.23555999027924       -1.99142843449396
C            7.33103873162212       11.99852221763551       -4.21201475567776
C            4.95986283263010       12.49464623840423       -3.52491137436910
C            5.58505275673821        8.94545295908147       -3.45967188457051
C            5.14697057629278        7.76722827396150       -4.07393495908871
C            5.12125372211829        6.52001952220220       -3.38818429013215
C            4.69130542525803        5.39270284066530       -4.00753187447303
C            4.23002924861414        5.40818744861020       -5.34885584030296
C            4.25497782826112        6.62962981736432       -6.06939787489537
C            4.72712349437920        7.81008576257115       -5.42459088790814
C            2.18123357742222        3.40476928617654       -3.65099179507607
C            1.67939111517592        3.19963271910774       -2.38541030838591
H            0.12593645403434        2.68827057809215        1.21547545861364
H           -0.32080168535568        2.65249040528463       -0.48555088567768
H            0.71261836596045        3.94730594301636        0.13728071945047
H            2.48688581477283        2.24899331056791        1.93937536722558
H            3.12727458600630        3.44243580002877        0.80898951414981
H            3.72524503811348        1.78575328576663        0.77616393314480
H            0.96198921031116        0.34802972748494        1.05208760776715
H            2.22506237581019       -0.09970145801268       -0.08895851314947
H            0.60300047600997        0.26348142986834       -0.67285430043046
H            3.84443363172720        0.85862701341592       -1.32664071589778
H            4.74043498031158        1.22915498637931       -3.57619262238328
H            5.95878449377403        3.02308163756699       -6.97885493715009
H            6.98257106616872        1.17194391429560       -8.21065299262151
H            7.19294662628835       -0.20100086140021       -9.84675805477782
H            5.62750646104363       -0.86788668916156      -10.30182776756884
H            7.05321551135954       -1.89890140952431      -10.27992529509688
H            8.23919342245458       -0.83663896767489       -7.59465116251055
H            8.13133649716075       -2.54000696747738       -8.03508531493312
H            7.41518823172156       -1.96965082818191       -6.52673484275865
H            4.45113658338253       -2.57453657811718       -8.75155287923410
H            5.25755946923759       -3.08223388030570       -7.26156403588295
H            5.92622792679197       -3.53132686350651       -8.82270822991033
H            3.94906869994443       -1.44360653061592       -6.76573939758153
H            2.94344233119469        0.41205132310465       -5.53458774048257
H            3.01646752559480        3.42354259652602       -7.79363536301263
H            4.76470818347206        3.65835527257990       -9.62345741864613
H            4.54911244197402        1.39469008166396      -10.52575390541401
H            4.49819056290643       -0.02384127699930      -12.16551543347353
H            3.46240898626623        0.52451093718417      -13.47860456948326
H            3.43719539354112       -1.16656369183799      -12.97879408238748
H            3.41584787639303       -0.59393483237434       -9.85242129222280
H            2.44989045161570       -1.80387208582030      -10.69781843737010
H            1.66586511904575       -0.57447936766030       -9.70420644913972
H            0.91338386300413        0.58179846905966      -13.17634765468671
H            0.20370385082261        0.07399147511611      -11.63698991945922
H            0.98140820211995       -1.10607915076052      -12.68091250266625
H            0.50731400972473        2.21654582090326      -11.58897939419282
H            0.72258396469671        4.45757602174328      -10.64295939215995
H            1.03103183817145        7.00014679510346       -8.12356010809727
H           -0.20324836378942        8.89540573455962       -9.05149658290129
H           -1.68026804654446        8.70467760928463      -12.43923936521197
H           -0.35560176067690        8.97667398086192      -13.56827448819988
H           -1.50822540108794       10.26700562321943      -13.24022753606385
H           -1.74980356733632        9.96794680080118      -10.21592179716732
H           -1.49461600681134       11.49370052714132      -11.05197564120298
H           -0.40332281616261       11.02049479134770       -9.75607909849913
H            1.57812236904054       10.52620512598571      -12.92337006688780
H            1.59620845847431       11.29896683205216      -11.34032785667828
H            0.44980402114089       11.83030593286140      -12.57119328091876
H            1.70062445406914        8.27946408589022      -12.81108979697284
H            2.93719984983594        6.38510181209362      -11.86403806089831
H            3.70757241071117        7.95697596696500       -9.15983938371837
H            4.48039473658757        9.97204191773953       -8.05049827090410
H            5.27432757607610       11.10388449357681       -6.01747959643238
H            7.29598703551686       10.52249823960572       -1.89928759573789
H            5.62729476874717       10.86457457863148       -1.41852582710451
H            6.80102424808749       12.16937636730336       -1.53196502747472
H            8.13876810187108       11.26693633188632       -4.20056295246534
H            7.69714805798612       12.91301749473113       -3.74552072033468
H            7.09977428528748       12.22523630194198       -5.25209277582508
H            4.06913537247521       12.11741329953506       -3.02277889517584
H            4.68902689267669       12.73118062240245       -4.55317070918743
H            5.25481205622992       13.42336148244535       -3.03663598273814
H            5.89316739265453        8.89282503826693       -2.43211763922299
H            5.45779709851763        6.48397856928351       -2.36635616303891
H            4.69688596703689        4.45790625686849       -3.47788301193079
H            1.72519990702430        4.12301573431186       -4.31012499864266
H            0.82387782204138        3.76788991232247       -2.06636199651931
