117
 energy: -21.779837137056 gnorm: 0.000683105277 xtb: 6.6.1 (8d0f1dd)
C            0.38557908607767        0.16713195822859       -0.13016429365045
C            1.91435386112530        0.33302737876932       -0.03285679767863
C            2.31773481438276        0.24355876949285        1.45068933578816
C            2.57899303029948       -0.81061916238006       -0.82084289775734
C            2.37978711670126        1.67979112800992       -0.60739831699842
C            3.73048615957750        2.00587082094427       -0.58507988339425
C            4.18640050283520        3.19954079365429       -1.09616003170761
C            3.30242064182161        4.11843618240479       -1.64943935153540
N            3.78267540855918        5.36270382732033       -2.18001381762418
C            5.01601324112501        5.38197451331868       -2.91602552910570
C            5.93244145150490        6.41469458578803       -2.75482200382647
C            7.09847511511702        6.43931303884006       -3.48579086394600
C            7.39785193457408        5.43848820934664       -4.40252834740589
C            8.70023144345879        5.51507522617593       -5.21424819269578
C            8.71365162398521        6.82010102197754       -6.03197854495531
C            9.90210571225348        5.49331383704008       -4.25241738874041
C            8.83645018075196        4.33075168348304       -6.19061751521822
C            6.48460107207757        4.40012580198457       -4.54963939448223
C            5.31702776515535        4.37016110367526       -3.82058226123215
C            3.03813217430181        6.57225996480412       -1.99193646072998
C            3.12484494585827        7.60833521794665       -2.91911662266928
C            2.42645357456839        8.77980972322619       -2.72802618835963
C            1.62531892466881        8.93218912137419       -1.62030353899075
S            0.74162658159117       10.48208074012818       -1.42074135428868
O            1.58309937724292       11.56376949848343       -2.06526799322734
O           -0.70379329648938       10.22656297239724       -1.79259709464618
C            0.80461481303913       10.73802446215520        0.35435574300457
C           -0.33716303489735       11.15957825479557        0.99521239193453
C           -0.32862832206329       11.36535808786148        2.35681185977991
C            0.82771182665772       11.13986776072742        3.10027579623991
N            0.83170171938835       11.33935047690098        4.51904391338262
C           -0.38410787152861       11.19950070484496        5.27108841167181
C           -0.70456699611399       12.10808133570720        6.27302903840177
C           -1.88373525285641       11.99476982055372        6.97380882451511
C           -2.78540506341348       10.97076811374101        6.70937256789878
C           -4.10107959663367       10.89288293461676        7.49930473641091
C           -3.78968374903992       10.78232982844873        9.00333973147744
C           -4.92738524001569       12.16457041882820        7.23316829699134
C           -4.94384490914812        9.67025595691632        7.08787887169406
C           -2.45496768755516       10.05766523504151        5.71377913252618
C           -1.27755160569392       10.16728176098591        5.00834317611613
C            2.03669332692810       11.72023246837985        5.20009823806886
C            2.33851488352420       11.19136844258869        6.44958012717270
C            3.49090231160628       11.55626205952722        7.10761606325937
C            4.38322750805041       12.46477249603882        6.55113292251316
C            5.65907000918576       12.84444601179860        7.31852367414296
C            5.27447245690314       13.43808819569863        8.68654799612886
C            6.52158185859225       11.58572238201508        7.52380100235985
C            6.49587842960950       13.88919115557610        6.55534976019781
C            4.07513217994050       12.99369899027490        5.30230446579208
C            2.92445156539155       12.63087627308277        4.63875020548153
C            1.97476505958211       10.71538545467553        2.43242616877720
C            1.96321209171816       10.52376200980264        1.06819649915947
C            1.51156851858044        7.91303726953087       -0.70012721238582
C            2.21785707151196        6.74389008296939       -0.87864929879410
C            1.95063694277851        3.79545011872852       -1.68057473941745
C            1.49995175441689        2.59966309553764       -1.16769726888206
H            0.07400522280843       -0.79123779665276        0.28461560152719
H            0.05212571689026        0.20024444114121       -1.16692508510519
H           -0.12991704962709        0.94995245401953        0.42547832947477
H            1.97803460857578       -0.69347439668220        1.89115099745648
H            1.87790529411154        1.06255930407269        2.01910576110540
H            3.39881684872764        0.29475126978375        1.57205395882421
H            2.25784121835086       -1.78170282589692       -0.44509531245468
H            3.66448907272212       -0.76587739628672       -0.74364942160147
H            2.31640917729521       -0.75316650944213       -1.87681445151358
H            4.43425421797049        1.31187100123086       -0.15943102886027
H            5.23438286928856        3.44147908516223       -1.06611205309356
H            5.71606371913568        7.19490900534211       -2.04612610037117
H            7.79064546929914        7.25155539191733       -3.34719367063931
H            8.67819462762703        7.69477690591409       -5.38412011700310
H            7.85421477878948        6.86391669588514       -6.70037013840074
H            9.61644895868743        6.89167728424887       -6.63793297094505
H            9.88130047592428        6.34443434340027       -3.57320265813325
H           10.84217650737397        5.52904816064693       -4.80234262494170
H            9.89710355367829        4.58479317776783       -3.65086961704485
H            8.01138828762528        4.31230362985755       -6.90212471286617
H            8.85544798753051        3.38133647472703       -5.65634628527888
H            9.76162558197709        4.40535156731249       -6.76166145915401
H            6.68334620794579        3.60582657239231       -5.24680875026823
H            4.61157072831690        3.56863901106586       -3.95360001734703
H            3.73991139625390        7.48000203569845       -3.79232339895545
H            2.49893571730805        9.58901214938428       -3.43669003245202
H           -1.23123016823612       11.32323969275829        0.41553967798155
H           -1.21500855889294       11.71124032278171        2.85869771395498
H           -0.02128130934474       12.91292290741824        6.48049166649679
H           -2.11555126019079       12.71779896609720        7.73641119751874
H           -3.24656419139470       11.65558042300487        9.36180086696454
H           -3.18045747192592        9.90206738628719        9.20642517738194
H           -4.70680348211579       10.69973487764122        9.58601978107445
H           -4.39165804392589       13.05819247496776        7.55045139495783
H           -5.87433325742757       12.13458915738109        7.77147896871414
H           -5.14631404427727       12.26573288285052        6.17055165548976
H           -4.40174620368352        8.74220524411749        7.26706053764062
H           -5.21432525159316        9.71647219844359        6.03341637726518
H           -5.86897294894368        9.62785458735774        7.66228697998178
H           -3.12665290294102        9.25038104142812        5.48235304546287
H           -1.03167608686696        9.45138907129607        4.24351972866184
H            1.65859262781271       10.48351223062015        6.89046248538961
H            3.70616636130358       11.12808234665008        8.07115867881726
H            4.73100873831296       12.71603383488139        9.29430347806056
H            4.63981048456623       14.31480114343782        8.56060289665018
H            6.16094219037583       13.74014576606661        9.24362483720182
H            5.99215829395749       10.83412419359992        8.10782819393510
H            7.44488430213148       11.82697932424527        8.04986297336952
H            6.78574370242040       11.13980298148973        6.56531501057548
H            5.92732952182272       14.80456185696057        6.39373638694530
H            6.81701772041864       13.50464724236614        5.58778934161994
H            7.39133584751922       14.15250984242388        7.11784933489200
H            4.74142926683886       13.69987818347486        4.83995250746544
H            2.69179920491190       13.05730508823929        3.67860939066506
H            2.87027758436166       10.52865962704743        2.99855043867967
H            2.85233364810036       10.20340349886077        0.55097025103069
H            0.87158892096503        8.04037950531074        0.15697210264936
H            2.15048666572704        5.95366528369577       -0.15182311652979
H            1.26121253421766        4.49213554559366       -2.12465171152790
H            0.44805892988846        2.37974062033223       -1.20748873802777
