130
 energy: -24.487004767296 gnorm: 0.000554042768 xtb: 6.6.1 (8d0f1dd)
C            2.45458813864449       -2.50691747682336        2.68815910845072
C            3.57070878520140       -1.65284555144679        2.05905587161404
C            3.16620082301737       -0.16976988078377        2.16557818805198
C            4.88248516637470       -1.85543706274696        2.83930537422142
C            3.77654634669210       -2.08388379444377        0.59907224110383
C            4.14896975552481       -3.39166151380866        0.31327910124390
C            4.33801404885844       -3.81550487487478       -0.98227294106375
C            4.15462714865481       -2.94175326673256       -2.04874856277362
N            4.36590926017569       -3.36030748249014       -3.40763837746443
C            3.77054019634750       -4.56549017997392       -3.90550485100443
C            4.10080597554437       -5.03303168312168       -5.17605365791991
C            3.51076630343168       -6.16946709988511       -5.68321368848755
C            2.58591149524076       -6.85788747521103       -4.93299165693999
S            1.82910262876930       -8.32877854475436       -5.63293633176433
O            1.75140074142905       -8.12332233005584       -7.12992317053734
O            2.47846787457355       -9.52964560341640       -4.98138554637483
C            0.17069999991083       -8.16746924757393       -4.96821710636220
C           -0.34473750519749       -9.18131823176842       -4.19449371174577
C           -1.61435321420615       -9.05911018068397       -3.66311783611630
C           -2.34971660230554       -7.92309167449561       -3.90986605907440
S           -3.99665487326860       -7.77568556960204       -3.21592519830212
O           -4.40726883178309       -9.12997657465694       -2.68037830296155
O           -4.04801001837478       -6.50300188192960       -2.39880713376752
C           -4.93124958152311       -7.49066701796503       -4.72121798736836
C           -5.89074524621725       -6.50479626197638       -4.72946730466587
C           -6.62224742569012       -6.26425077404991       -5.87105822007997
C           -6.39125083690602       -7.00661432616069       -7.02772836530767
N           -7.16309833762968       -6.78799015785929       -8.21751387951969
C           -7.46820443618007       -5.46086336832469       -8.66868646635247
C           -8.45398672470326       -5.25755358945550       -9.62761560887061
C           -8.75901054598402       -3.99066153411658      -10.06997462176903
C           -8.09415839608107       -2.87474670197350       -9.57738940631771
C           -8.46143128989339       -1.47633628780319      -10.09708205838983
C           -8.10055138326054       -1.38361573828179      -11.59015852515107
C           -9.97224235292604       -1.23826332344176       -9.91257152394313
C           -7.70478988185219       -0.36864541229841       -9.33866178367882
C           -7.08989415714794       -3.08323915745187       -8.63917713654320
C           -6.77970574123449       -4.34930343079179       -8.19598651836009
C           -7.34813787533704       -7.88531308304129       -9.14012242890120
C           -6.53665459289979       -7.90143043338532      -10.27421831133069
C           -6.58427122722490       -8.93913481479145      -11.17128440298470
C           -7.44809554186376       -9.98712221270191      -10.94744837391698
C           -8.26956485932595       -9.97969411860219       -9.83798498007701
C           -8.26428908673756       -8.93546100603353       -8.92359494278209
C           -9.21739787706989       -8.97280637438990       -7.71225346054628
C          -10.43267767664681       -9.88583367100146       -7.98863687320740
C           -8.47072996583459       -9.52328383745218       -6.48580196616295
C           -9.77449756403668       -7.57245256771026       -7.39863675350589
C           -5.41754637199695       -8.00314363519687       -6.99699997928502
C           -4.69590228140741       -8.24420726708884       -5.84975198845567
C           -1.83475737977271       -6.90875790904192       -4.68494746332988
C           -0.56845607921399       -7.03434194283258       -5.22258480233195
C            2.24838887351923       -6.41647358918520       -3.67260873691293
C            2.82692868567314       -5.27473158769703       -3.16546041939083
C            4.84655610039423       -2.39099466331958       -4.36760948656158
C            3.89794256942606       -1.78672701701366       -5.19217934429308
C            4.25496443101332       -0.82827751435935       -6.10760588998942
C            5.57478790862679       -0.45176926565746       -6.21315477512107
C            6.52856902409393       -1.04726022983438       -5.41228761886288
C            6.20493287180905       -2.03424628583012       -4.49177087496840
C            7.30823395606588       -2.68150257327521       -3.63267389678556
C            8.70409558936905       -2.47198594753308       -4.25976728333538
C            7.31142953924124       -2.04234502929733       -2.23428142228321
C            7.09170724748503       -4.20130379669565       -3.51632331500641
C            3.79025052782857       -1.63007445210210       -1.76674873123169
C            3.60302774286601       -1.21154577687595       -0.46923224114824
H            2.27036505646753       -2.20941176162773        3.71991519361116
H            2.71659358820379       -3.56384594206631        2.68827163933492
H            1.52416553991547       -2.39324758126571        2.13286891341175
H            3.02949120589237        0.11942871790949        3.20715036891549
H            2.22747308978707        0.01902257473989        1.64588875526611
H            3.93350066304720        0.47766269988519        1.74246050545441
H            4.77218438058053       -1.53908163745674        3.87601950279142
H            5.68897988909376       -1.27449232970392        2.39307564336982
H            5.18508716833511       -2.90148368134184        2.84127633663433
H            4.29274162327783       -4.08715380864471        1.12159991733350
H            4.64237669934471       -4.82795268225611       -1.18184510387526
H            4.81823296777742       -4.48794649735443       -5.76350677803929
H            3.75526674264573       -6.52811912786356       -6.66968162564796
H            0.25458888329342      -10.05786189731111       -4.00912163333922
H           -2.04113439710369       -9.84055027175986       -3.05564647333679
H           -6.05645880028060       -5.92987731586306       -3.83317304417956
H           -7.38855450388132       -5.50914844064697       -5.87421236287670
H           -8.97507789367440       -6.11016861563741      -10.02553666429078
H           -9.52337173550092       -3.86280650264494      -10.81637413988563
H           -8.64725764111014       -2.12284578664555      -12.17395953560034
H           -7.03595854315950       -1.56020603911344      -11.74010727968574
H           -8.33914598000685       -0.39826127950405      -11.98913349288369
H          -10.56154942132118       -1.95342241209779      -10.48416882100925
H          -10.25223667529316       -0.23915011616764      -10.24493789122066
H          -10.25178603745312       -1.33546316970983       -8.86406165705966
H           -6.62856447361192       -0.45742913525076       -9.48189765647037
H           -7.91730117995362       -0.41081782113115       -8.27087926724125
H           -8.00222173357769        0.61667640310332       -9.69633995195064
H           -6.53841635263602       -2.24626055419188       -8.24986233284357
H           -5.98092674773765       -4.48986262278956       -7.49000221929721
H           -5.85273043205872       -7.08425758269652      -10.42435080864671
H           -5.94278733249919       -8.93858733653935      -12.03738143772619
H           -7.48262708227475      -10.81305612069956      -11.63901115732884
H           -8.92878996724642      -10.81534846603361       -9.68771475313374
H          -10.13931239256601      -10.93147061822737       -8.06734940780177
H          -10.93591757843262       -9.59518962281719       -8.91022159914918
H          -11.15782049303317       -9.81862627947711       -7.17816442944919
H           -8.05108276076317      -10.50598772732289       -6.69746341479089
H           -9.14033596175917       -9.61862524090470       -5.63182825424544
H           -7.65450591019695       -8.86858752313528       -6.19231980279892
H          -10.28947270496660       -7.15844935647275       -8.26429684047185
H           -8.98428797410931       -6.88413557264929       -7.11285083777844
H          -10.48454910600095       -7.61208757409629       -6.57329481403850
H           -5.23917562369505       -8.58533631647867       -7.88350844651052
H           -3.94626299409681       -9.01720203082013       -5.82527636847036
H           -2.42422089601908       -6.02466852823115       -4.86314193115933
H           -0.14912936550808       -6.25305911680409       -5.83467985663252
H            1.52362146699297       -6.96447242880719       -3.09444413511035
H            2.53029919566525       -4.90948420615938       -2.19905740816581
H            2.86892868843400       -2.08508624355286       -5.09116805690019
H            3.50745305757412       -0.37100447924411       -6.73508980387096
H            5.86302925266697        0.30599060332394       -6.92333310363758
H            7.55032704934284       -0.72969405388029       -5.51585463338559
H            8.99348904743511       -1.42217893570890       -4.24931735554939
H            8.72691296032958       -2.82978076415039       -5.28855812253610
H            9.46355589072353       -3.01835913532367       -3.70124976470874
H            7.46083376724002       -0.96541223292470       -2.30266556926507
H            8.10878245883409       -2.45625967967415       -1.61800486594573
H            6.37098802932389       -2.21465810519611       -1.71811395860967
H            7.05187469649851       -4.66224079403574       -4.50233877451296
H            6.16538690871019       -4.43294007021951       -2.99831197658856
H            7.90232617871489       -4.66916730660778       -2.95878654421943
H            3.65226671721794       -0.94453008516906       -2.58377000519164
H            3.31502383380261       -0.19159556955311       -0.28789619093615
