146
 energy: -27.104039958737 gnorm: 0.000629590138 xtb: 6.6.1 (8d0f1dd)
C            4.37904416600511       -3.70709016128324       -9.35243808120188
C            4.95255872288558       -2.36142695858796       -8.87185955458099
C            6.18809212249882       -2.02615989981908       -9.72950967886126
C            3.90590209781187       -1.24975628099924       -9.07183548900700
C            5.30457825987482       -2.46798056563176       -7.38023558830592
C            4.30671104636761       -2.76634223706732       -6.45993800637201
C            4.58868463475090       -2.89692962604666       -5.11966629357597
C            5.88668128847600       -2.73293054284704       -4.65060210205566
N            6.19770964206210       -3.00224344009198       -3.26302262182170
C            6.50772955686078       -1.95302135538224       -2.37133355782161
C            6.65181134810474       -0.64784029671276       -2.84760842859275
C            7.08699802544840        0.36069541174368       -2.02920426314169
C            7.40649744951939        0.12088039801520       -0.69019597703277
C            7.96227094592075        1.26679157414182        0.16956727143764
C            9.33339249292628        1.69212620784330       -0.38497427731787
C            6.99133445127538        2.46236642555598        0.12825862031513
C            8.13579379017752        0.84459538151989        1.63963189772627
C            7.23979440242265       -1.16254374193872       -0.20782894057796
C            6.76192615730003       -2.18880933585574       -1.01276234635229
B            6.50141331232941       -3.62290271025655       -0.49350034951745
C            6.34118463499979       -4.05420694598103        0.98351631300516
C            6.07376214957998       -3.15813398238628        2.01043084387275
C            5.97332015000976       -3.56825650951057        3.32549071223115
C            5.64549372451030       -2.59881005905926        4.47194257458374
C            6.64065262428627       -2.80315649570084        5.63116803352369
C            5.74324382291022       -1.13032870131575        4.01991008640811
C            4.21390065607383       -2.87241994220075        4.96386542411990
C            6.12805037977185       -4.93034888838806        3.59678869662367
C            6.35796937678440       -5.83328040776939        2.59263165546660
C            6.44608442504617       -5.42440241769594        1.26013753808100
N            6.55578682677249       -6.38473944662166        0.23249625927305
C            6.67808171950819       -7.79394038652266        0.54101424982261
C            7.89463086279342       -8.44546489551712        0.37501406507943
C            7.97860843681411       -9.81298679419186        0.50256323156215
C            6.85762306243527      -10.57954373550521        0.79922773007616
C            6.98389754451185      -12.10850129614010        0.87995035710440
C            7.47926997375651      -12.64471357788969       -0.47590338170697
C            7.98941766181854      -12.48154671145487        1.98459615442790
C            5.63444115935351      -12.77865890644518        1.20321744318657
C            5.64729309876385       -9.91915467246339        0.98306285496903
C            5.55609215904392       -8.55154268841052        0.85537814643484
C            6.43714496594756       -6.04305892949016       -1.12541463057371
C            6.35291072102007       -7.02495381370195       -2.10194754315670
C            6.24475974168207       -6.70670891537400       -3.44863880298766
N            6.19890449855160       -7.73814841030743       -4.43701057126881
C            5.44536094045996       -7.71684520707970       -5.63330333445108
C            4.54124679975537       -6.78770163634694       -6.14383588645239
C            3.92545895043400       -7.04789780183143       -7.34356857294449
C            4.17583104743288       -8.22074141640093       -8.07704852019448
C            3.43647910177608       -8.45220353560716       -9.40415802549711
C            1.92932885118773       -8.58869976297184       -9.12372551427550
C            3.68123163157735       -7.26016026400678      -10.34827751145348
C            3.92156673806832       -9.73284432960619      -10.11140319077515
C            5.06093872742474       -9.14967244625071       -7.56005323815341
C            5.69038308111591       -8.90308161631289       -6.34069523336942
C            6.62140586919407       -9.68691741169322       -5.56195433720212
C            7.21057553719829      -10.92958251307574       -5.79211898775129
C            8.10504566058568      -11.44747144743236       -4.87260362839161
C            8.79373242331271      -12.80542826781528       -5.08051031347356
C            8.30315732522405      -13.50367089295064       -6.36379640681066
C           10.31405027936380      -12.59089709380538       -5.19325848189392
C            8.48860193770556      -13.72534054750227       -3.88391448074543
C            8.40421056117567      -10.69269528282724       -3.72518424383330
C            7.83176612764820       -9.46799870756160       -3.48354583785217
C            6.91863224066503       -8.95528244532849       -4.40280772148486
C            6.19695907006316       -5.36898451666516       -3.81687355557976
C            6.25914258255155       -4.35204196826854       -2.87471931831208
C            6.39303206141360       -4.70159077555859       -1.52493627021742
C            6.88901107553858       -2.42796397669039       -5.56344907442151
C            6.59985214761256       -2.29582148080568       -6.90299509284895
H            4.14193523899017       -3.67349096312758      -10.41573636506176
H            3.46603086154503       -3.96128916619489       -8.81550794390134
H            5.09785267892981       -4.51039806976685       -9.19099593909410
H            5.91929027333058       -1.95591379432189      -10.78352955683720
H            6.95180442631253       -2.79803023766390       -9.63605705337218
H            6.62211941681201       -1.07053353130622       -9.43592470264041
H            3.65369592987305       -1.13655904060340      -10.12612877493074
H            4.28583052162038       -0.29400541825814       -8.71122679189387
H            2.98575831778950       -1.46935698804371       -8.53167117970948
H            3.29652922619650       -2.90787102228303       -6.80317591420897
H            3.81314596192241       -3.14733262233486       -4.41651100486020
H            6.44043333773748       -0.44677325328272       -3.88284353325492
H            7.21311783160965        1.35071230065951       -2.43177707045845
H            9.25095183704023        2.04157377796561       -1.41362511040383
H           10.03047242859607        0.85443180785988       -0.37149404130530
H            9.76239131137132        2.49868234276409        0.20943149044682
H            6.88281960607837        2.85483213022693       -0.88183717294150
H            7.34737315355175        3.27485640083045        0.76156981702516
H            6.00343096863672        2.16767258882106        0.48192080260164
H            8.84317213229239        0.02124830010143        1.73586346182877
H            7.18093041250190        0.53814079480809        2.06353516558567
H            8.51309374223235        1.67303775831418        2.23918088970006
H            7.52572888880842       -1.39617008492571        0.79926125396789
H            5.89827067852791       -2.13095288906685        1.75690122059039
H            7.66565067029590       -2.66735055568102        5.28650124483023
H            6.55905861320146       -3.80091797813949        6.05970230601958
H            6.45711747911843       -2.08658159308321        6.43170161643585
H            6.74322161970036       -0.91293598580119        3.64746695824757
H            5.54511298745667       -0.45442356877094        4.85178575139673
H            5.01981500810238       -0.90486399287964        3.23687322717187
H            4.11290107148009       -3.89505945220636        5.32621038521966
H            3.49581970104848       -2.73169789333334        4.15615238518469
H            3.94441323475507       -2.19915359148406        5.77748703252177
H            6.03560723188430       -5.28050894173095        4.61002660517560
H            6.44929804420658       -6.88055617572352        2.82061498884065
H            8.76200948519587       -7.86269405003602        0.11694621412340
H            8.92685878993598      -10.29975897950484        0.35367511103717
H            8.46425884455233      -12.24877287890049       -0.71950971678858
H            6.79620374777493      -12.35883322016590       -1.27582112360692
H            7.55062346758703      -13.73223113731527       -0.46414567765512
H            8.97857123463222      -12.07693622882729        1.77357453216659
H            8.08498872663739      -13.56347174285215        2.07565207970973
H            7.66560932032756      -12.08890587099851        2.94834013206107
H            4.89377615891666      -12.56038980238709        0.43406334529170
H            5.24774817410638      -12.43948122833250        2.16405125403501
H            5.74377765408761      -13.86188628344739        1.25621941116676
H            4.75940322592282      -10.48041205982932        1.21382803616551
H            4.60943835484961       -8.05121888914963        0.96542313122929
H            6.34240286244482       -8.05657100527609       -1.80937517298749
H            4.31989059139837       -5.89132787385591       -5.59387149139458
H            3.21821330213618       -6.33536791460537       -7.73073131860746
H            1.53076048142362       -7.68567405153139       -8.66252310293796
H            1.73761842593911       -9.42176730689706       -8.44762718955395
H            1.37501488387564       -8.76665291474918      -10.04512876730104
H            3.27439006539034       -6.33788488710399       -9.93677732008434
H            3.20746451938176       -7.42570914125538      -11.31580957767187
H            4.74811165567082       -7.11328044682279      -10.51574493031274
H            3.72480451352520      -10.61657124709309       -9.50482325888525
H            4.99068814309126       -9.68461127655271      -10.31779938658019
H            3.40693806725605       -9.86787617609905      -11.06274567978056
H            5.27326214113731      -10.06724216415798       -8.07518233400034
H            6.95964175552119      -11.46253690810410       -6.68954566394843
H            8.52912269173225      -12.90667616500036       -7.24712535090293
H            7.22786798874137      -13.67791655899866       -6.32838202774663
H            8.79024806927259      -14.47085177799610       -6.48805045368704
H           10.54878603491808      -11.93089360142586       -6.02817916646966
H           10.83079132335868      -13.53687232603549       -5.35467900503373
H           10.71828599661057      -12.14054109134898       -4.28738055691080
H            7.41324490082887      -13.84948968777819       -3.75714653367125
H            8.89199692347415      -13.31759304534370       -2.95839741571102
H            8.92768792658514      -14.71235773023861       -4.02865439072649
H            9.11228785866124      -11.08526021125966       -3.01630095299305
H            8.09240690783242       -8.90233608605070       -2.60792146566095
H            6.14803876906380       -5.11674389216413       -4.85802190459766
H            7.89849991371639       -2.32019187853482       -5.20589213510329
H            7.39710220092750       -2.06542702609288       -7.58702751850162
