116
 energy: -24.292899360457 gnorm: 0.000501999161 xtb: 6.6.1 (8d0f1dd)
C            0.51817406851188        0.87573248736853       -0.78966482428719
C            1.92246069486454        0.86119793952143       -0.15956470994083
C            2.98530844768444        1.07450225470186       -1.25346427661828
C            2.02170432859472        2.02763424058106        0.84154186752084
C            2.15936633997443       -0.49557708270445        0.52122621563174
C            2.13513907597014       -1.66498127011399       -0.24364455824873
C            2.31265920179284       -2.89359960923684        0.33249375917375
C            2.54431920326204       -3.02513662555962        1.70755227153511
C            2.63259044159603       -1.84952438468025        2.46971607501769
C            2.39747541174997       -0.61736538658905        1.87518930975129
B            2.99334507046393       -2.04173612061763        3.95325580420496
C            3.45421533633472       -0.95390875954967        4.93900449413961
C            3.87889811071159        0.31316855684264        4.56575186143465
C            4.22595429891132        1.27156404406406        5.49499905720592
C            4.65713094434799        2.66998297861307        5.02724737737967
C            5.79919679611477        2.54461941576159        4.00044506746340
C            3.45239880633996        3.37438765495375        4.37964721621117
C            5.15881046081917        3.53422577608824        6.20032383027218
C            4.13971360102179        0.92844426860425        6.84793795387735
C            3.76617194987765       -0.33019843231802        7.23551830181807
C            3.43815809789501       -1.31517009741943        6.29516009582891
O            3.15605923826257       -2.58729906562748        6.76959902240155
C            2.97959459415965       -3.62682318078200        5.87526404481615
C            2.86511540357412       -4.92729823851304        6.35125250145148
C            2.66960325472484       -5.99980657071517        5.48886052928440
N            2.51514187170639       -7.32557096693429        6.01731855115193
C            3.39386068935321       -8.38526350923984        5.71854695216347
C            4.37062804473886       -8.49467533550357        4.73001356741940
C            5.08390946544920       -9.66280550099655        4.62984117005336
C            4.83685554008672      -10.72618239148192        5.50002741427954
C            3.88920867366585      -10.62248331067008        6.48738454105183
C            3.16579637804949       -9.43478385808688        6.62388682727344
C            2.13467340567635       -8.99727556816761        7.53373685538187
C            1.56736780929200       -9.56397991562670        8.71684382713439
C            0.51769923445894       -8.90246324767637        9.38168348649657
C            0.23173076414875       -9.65076341392497       10.58151507163797
C           -0.62219166941176       -9.44400905202442       11.66892429309383
C           -0.62121969078205      -10.33876761131374       12.70955357450756
C            0.23210519307006      -11.44411859955009       12.70429407005797
C            1.09614766101044      -11.65632731941340       11.65968232817728
C            1.09669690391527      -10.75660328584381       10.59446051071906
N            1.92782714019979      -10.70102485288053        9.46158125149637
C            3.09039733639952      -11.54107038280395        9.32973673559398
C            4.35921537976817      -11.02600944971672        9.56924870041056
C            5.47074055109259      -11.83056618719283        9.45283068460944
C            5.32884011966806      -13.15944144254870        9.10310710067146
C            4.07139178963729      -13.68434337521362        8.87567021638590
C            2.95760448469444      -12.88304834947384        8.99267647389922
C           -0.00564345038616       -7.68244672686002        8.85197608964507
C            0.58876862438495       -7.09972619942804        7.71853753045973
C           -0.20166702792564       -5.94798962793818        7.36038154712823
C           -0.18179533896311       -5.06434829524705        6.27677908644804
C           -1.12698458170355       -4.07261333617766        6.19758354056130
C           -2.12071395669522       -3.95084025416873        7.17136549369926
C           -2.18176449041999       -4.82832953708625        8.22501264019501
C           -1.21967037991587       -5.83308085016025        8.31999920482111
N           -1.11441058833318       -6.90278473322677        9.22800143956617
C           -2.16684356166136       -7.21485837687517       10.16013838611257
C           -3.02227504845920       -8.28423954518624        9.92121976702785
C           -4.03153911035779       -8.58056083679156       10.81001989980278
C           -4.20261278582333       -7.81022545213659       11.94389280987157
C           -3.36578444143197       -6.73770409301264       12.18423248058080
C           -2.35710987154150       -6.43707061169701       11.29633074094031
C            1.70112108692609       -7.73637108875796        7.08929557658787
C            2.61196947105614       -5.77449866433294        4.11898111821385
C            2.71605763153726       -4.49272523958643        3.59222914228795
C            2.89781044639739       -3.42509896950432        4.48726850044651
O            2.63160832040664       -4.30937672012469        2.22414369023126
H            0.31509079324459        1.83339406087397       -1.26815886540201
H           -0.24565227627440        0.70840588480385       -0.03089474862729
H            0.41532084749980        0.09746908969489       -1.54457754494730
H            2.85880087404262        2.04310417254136       -1.73632825911321
H            2.92140537423136        0.30805096701943       -2.02439325135199
H            3.98759275582285        1.03852584024120       -0.82747590741549
H            1.85582695214242        2.98161852051087        0.34163466379124
H            3.01003009369389        2.06290182100644        1.29835071379165
H            1.27492128242817        1.93536161145211        1.62955184128737
H            1.95372620632088       -1.59802633478851       -1.30217839082329
H            2.26154107963829       -3.79041013151363       -0.25911056180038
H            2.35555496380266        0.25184887529391        2.50090361696886
H            3.97655713158613        0.53963729827837        3.52221640926604
H            5.47504864020186        2.02041306081269        3.10278756585232
H            6.63926859090671        1.99597388257156        4.42520915293761
H            6.15810462013645        3.52738909097597        3.69600165612098
H            3.07801389110833        2.80730835290671        3.52944006218293
H            3.72341099613020        4.36933484680743        4.02760936817620
H            2.63679743503912        3.47848905729474        5.09458191740794
H            5.99726187478651        3.05686635482868        6.70664945539825
H            4.36720900967362        3.70802614421011        6.92839785828831
H            5.49605231134076        4.50811011711003        5.84634337993807
H            4.38563755813969        1.65520201513079        7.60129386378546
H            3.73329021345338       -0.59719174902656        8.27697105972781
H            2.91253029116930       -5.10027118366528        7.40942052678831
H            4.55139884744503       -7.67027202590627        4.06397228014508
H            5.83939701922229       -9.76328942122256        3.86790234791704
H            5.40016790043413      -11.63913455153224        5.39645360012843
H            3.69380163234832      -11.44620127584555        7.14454241522328
H           -1.25764023529113       -8.58213386657576       11.69411846587263
H           -1.28247901061947      -10.18293374942579       13.54615129908796
H            0.21853038416248      -12.13109656247280       13.53449473443468
H            1.77339131545034      -12.49163042034582       11.65061551354604
H            4.45478754074409       -9.98801105895524        9.83649408391358
H            6.45177829303273      -11.42180348451637        9.63153167788216
H            6.19962955157596      -13.78758184576451        9.00956600149944
H            3.96156636902956      -14.72230133183480        8.60697464224995
H            1.97243625248908      -13.27933890226673        8.81800202051291
H            0.55378910564044       -5.17833437727657        5.50503050577576
H           -1.10584971811772       -3.38261240342103        5.37004527029225
H           -2.85461270990402       -3.16626063498944        7.08659151310511
H           -2.95593217554758       -4.76135279158943        8.96832612032649
H           -2.87478053928365       -8.87797579595689        9.03596149889425
H           -4.68616289766694       -9.41575824293219       10.62192338626925
H           -4.99083294321636       -8.04490783719729       12.64048059658739
H           -3.50200008235588       -6.13546320318424       13.06761528352608
H           -1.69656137599466       -5.60600570916277       11.47281072878923
H            2.45185476560235       -6.59885088110438        3.45069925615980
