85
 energy: -16.396101849071 gnorm: 0.000671626098 xtb: 6.6.1 (8d0f1dd)
C            0.88321193373115       -0.29705081097508       -1.03243492632015
C            2.20430749327132       -0.37387513639866       -0.24368306598609
C            2.10507214324730       -1.54695771826478        0.75035586151970
C            3.36994063255791       -0.64826037666566       -1.21086325291937
C            2.45279009592627        0.96073272056611        0.47498739016875
C            2.67225818891441        1.04437410863642        1.85424179850963
C            2.87259623850178        2.25212467510963        2.46678734534559
C            2.88466579526296        3.44760105583127        1.73550192023661
C            2.73384897477145        3.35963729386087        0.34337576918280
C            2.48487961647373        2.13170326144502       -0.25184523977118
B            2.85149691620359        4.68561614442517       -0.42604212881259
C            3.03457190447137        4.85523881256320       -1.94283305897887
C            3.40901183715406        3.83128927659120       -2.80025842821246
C            3.49624852938603        4.01527279058490       -4.16363205136334
C            3.87943950912588        2.83320146239707       -5.06662840004081
C            5.23486302492562        2.25736713141461       -4.61483829649594
C            2.79374642967944        1.74698041811541       -4.95989560656147
C            4.00304360007885        3.25889616728626       -6.54220852035717
C            3.20566114313508        5.28729204652063       -4.66868513031061
C            2.88091561569447        6.32279005997569       -3.83403276311479
C            2.80788090108648        6.14525517137620       -2.44577368949888
O            2.55255530556656        7.26087192370976       -1.66231264978451
C            2.62612784072447        7.16132778537840       -0.28449839492690
C            2.54921427328294        8.30987608986098        0.49174316042570
C            2.63370977074886        8.25717978435916        1.88280641709119
N            2.55852882679930        9.46323753263002        2.67175023952962
C            3.69619772833966        9.88275440144722        3.41623452162002
C            4.89981114498133        9.19174227458545        3.28175327682799
C            6.01865875908908        9.55793870736741        3.99015323302338
C            5.95778181037587       10.63208174693177        4.85028410534390
C            4.77831432033790       11.33576465697384        4.98458963991359
C            3.63894920507944       10.98753732491459        4.27467565828254
C            2.36196941515656       11.82028588759134        4.44111439855869
C            1.91027488792057       11.73169686495534        5.91232404927559
C            2.67906979629838       13.28330562243965        4.06930054530611
C            1.21379093340533       11.32798273559874        3.55073671693907
C           -0.00074853744626       11.99712001796263        3.57435762560646
C           -1.07535601586769       11.57324330447264        2.81953581297204
C           -0.95296749091026       10.45452058008128        2.02558224085643
C            0.24119090224640        9.77617275973421        1.98708467799975
C            1.34166022130283       10.19883444969493        2.73183797143240
C            2.79736435575366        7.02074213128603        2.50651188577226
C            2.86385953780342        5.84150650496800        1.77750690021286
C            2.77865827902625        5.92949540964227        0.37669903152591
O            3.00710293443639        4.63568234173983        2.43999008554489
H            0.66519529204836       -1.24693050118354       -1.51985307668614
H            0.92328891296292        0.46867921961244       -1.80565275671112
H            0.05237568087182       -0.06011289015721       -0.36853814383281
H            1.90483905324564       -2.48140688497144        0.22663819310591
H            1.29674430431806       -1.38792121845280        1.46355571434434
H            3.03541357531232       -1.67432509218523        1.30291495490053
H            3.22739568368619       -1.59177911110800       -1.73698706212657
H            4.31430230778039       -0.70186966301019       -0.66994006189233
H            3.45746439359789        0.14054234086004       -1.95637937711907
H            2.66711131945331        0.15050792144597        2.45201248373164
H            3.00841152885791        2.31180866279542        3.53214529287904
H            2.27100539005877        2.09908524022630       -1.30225133054296
H            3.67663595150263        2.87965235725615       -2.38438236781402
H            5.18715106896234        1.87619797145131       -3.59583823976893
H            6.00906695130169        3.02329216187516       -4.65035854221252
H            5.54314626330624        1.43546877406078       -5.26057704479816
H            2.69520014683662        1.38721276133192       -3.93694317295177
H            3.03161577913477        0.89292027057373       -5.59342186717270
H            1.82549348813867        2.13893775468955       -5.26995548533163
H            4.75980184490063        4.03341223245072       -6.66396699049198
H            3.05486976656054        3.63696389646904       -6.92320629168426
H            4.29252980597260        2.41307473726852       -7.16546517061322
H            3.25329297948792        5.46611404874087       -5.72798817741473
H            2.68961762191063        7.30551397559142       -4.22730775626448
H            2.43733630852300        9.25949561719163        0.00427974056146
H            4.94960170266087        8.35870524639684        2.60339358177910
H            6.93812970899808        9.00736664834483        3.87466706732250
H            6.82976218419096       10.92424233298502        5.41262112908424
H            4.74395077063302       12.17569737660669        5.65650287932152
H            2.68528133887589       12.09033800780381        6.58821579874406
H            1.68456212602205       10.69898064821533        6.17708119734902
H            1.01554992237011       12.32675256044339        6.08960038105952
H            3.47230215587598       13.69042085554389        4.69456837861755
H            1.80663575785760       13.92368068939540        4.18954381897069
H            3.00304559806974       13.34818485742013        3.03087241076102
H           -0.11297940512720       12.86375026478834        4.20243190582625
H           -2.00863739160689       12.11129426723546        2.85672546353570
H           -1.79079496596131       10.11200012903261        1.44018497619989
H            0.33089405014531        8.89535821092677        1.37732854582799
H            2.85629230020830        6.97334392929809        3.57710232596528
