57
 energy: -11.190543467724 gnorm: 0.000800619294 xtb: 6.6.1 (8d0f1dd)
C            0.95327842291516       -0.51966992297307        0.00061109038682
C            2.36958317760560        0.01062317374166        0.29081968309842
C            2.28179624876555        1.26437370343260        1.17997003450350
C            3.14491143430816       -1.07663207595326        1.05950697611377
C            3.05646027709561        0.37614316153187       -1.03427978863065
C            4.26689641459895       -0.23172560963494       -1.44040043785367
C            4.88142173647102        0.08751168730678       -2.62197819117733
C            4.28875927861623        1.04680229068657       -3.44782527346573
C            3.08467073262102        1.66838268224145       -3.06214035244899
C            2.47691521233808        1.32479294390044       -1.85083613673570
N            2.72241643641841        2.56901330792567       -4.05675764805995
C            3.67600595644956        2.52598502827293       -5.05991708167609
C            3.77495314394040        3.24802492477747       -6.30075088593089
N            2.94495130661693        4.20292026193215       -6.86330690473664
C            3.47792356588311        4.58652408504729       -8.08811753739023
C            3.03343573132698        5.49659098251278       -9.05181089602513
C            3.75979711232517        5.68318164043014      -10.20939607010446
C            3.25322798866524        6.68884908171932      -11.25496022754707
C            3.22000729398169        8.09530632858777      -10.62996448933261
C            4.16057707773478        6.73056627914343      -12.49961094622928
C            1.83595837633167        6.28731831149041      -11.70446946701105
C            4.95256347470384        4.94728054666143      -10.39743878361347
C            5.40899871529152        4.05093504208530       -9.46788230957844
C            4.66810769978100        3.86229585209084       -8.29774267340014
C            4.85128599601280        3.02032077565127       -7.16348713376076
C            5.89267475477761        2.06156332973432       -6.83375263720184
N            6.95316545197192        1.74716772290494       -7.53253808817316
S            7.79290286543547        0.60368467922605       -6.68732276520742
N            6.78249925759552        0.49639841982965       -5.38528607759109
C            5.79347726648214        1.33102846293550       -5.57761083953665
C            4.65721678406762        1.59354445937978       -4.71035144647551
H            0.44850104791171       -0.80890209529602        0.92195521141254
H            0.99545605876854       -1.39302629178951       -0.64955067216951
H            0.34036836367442        0.23418313770525       -0.49138696857205
H            1.81414376607852        1.03236424070391        2.13642375947047
H            1.69415884568162        2.04759300850910        0.70315206587159
H            3.27529332465367        1.66537710768873        1.37840909263109
H            2.63826389589069       -1.32601740170145        1.99151535087434
H            4.14939295532005       -0.73852180442261        1.31214571757305
H            3.22287633743164       -1.99164006802494        0.47307897238869
H            4.72583811154393       -0.96879948811868       -0.80652641023579
H            5.80122256295702       -0.37649780684729       -2.93031068218965
H            1.55945448406613        1.80836031930546       -1.57278217434304
H            1.89704388488155        3.16875606204466       -4.04781652039220
H            2.07542809399888        4.54815481602794       -6.45618945552743
H            2.12597828571576        6.04215412769926       -8.87366055613757
H            4.21318534191668        8.38930981375513      -10.29174323340397
H            2.55069533730994        8.13089458543365       -9.77151380794172
H            2.87644807515869        8.83535883201986      -11.35218138629564
H            5.17153262942939        7.04239101655347      -12.23918066938601
H            3.77765724825607        7.43997091237159      -13.23287438864285
H            4.21059725339384        5.75446852624008      -12.98124895400857
H            1.13377407470727        6.31036814048616      -10.87241770952429
H            1.83438009314490        5.27835271276244      -12.11576960777640
H            1.46372516099345        6.96502475592732      -12.47222342634315
H            5.52390988371918        5.08951360484374      -11.29690319711336
H            6.31508569225730        3.49044767950363       -9.61376304542089
