108
 energy: -20.073178433266 gnorm: 0.000602363717 xtb: 6.6.1 (8d0f1dd)
C           -0.08803611767683        0.12012120886867        0.88331654625142
C            1.38250672305231        0.14836398486812        1.33912630516239
C            2.29141255708220        0.47017077934239        0.13857321624980
C            1.54443102599613        1.26824746514018        2.38512037071925
C            1.76416061984155       -1.22669890088861        1.90855132059180
C            2.23741344763691       -1.38859018610514        3.21992195413670
C            2.58826191052546       -2.61841210078488        3.72800656583534
C            2.46476286744091       -3.74899487014915        2.92465937206680
C            2.01444359736697       -3.59555674978157        1.60075718211077
C            1.66199943494517       -2.34542211705766        1.10132454579432
C            2.06314452046499       -4.89728874579508        0.97046743481937
C            1.74209190805044       -5.35487713783686       -0.30033473970572
C            1.90613301126714       -6.70346028516346       -0.61404178592303
C            1.51057962046542       -7.19370683404607       -2.01550096721676
C            0.04240432318238       -6.81867179134341       -2.29356013231765
C            2.42326691538979       -6.52635439413761       -3.05935895526951
C            1.64718849188236       -8.72225273261389       -2.15020846007995
C            2.43068448608424       -7.56367864781499        0.35236610576891
C            2.77009820205281       -7.12879954071570        1.62511784840427
C            2.56030073730164       -5.78708640174256        1.93287306370843
N            2.76477262859914       -5.12538490475001        3.14430534395208
C            3.14971265869706       -5.85410211673851        4.29260454982562
C            3.10221850548868       -5.30533766841597        5.56517535553680
C            3.46888566909338       -6.03713234572772        6.68970873499810
C            3.37505670675123       -5.44742907889578        8.04727535261626
C            2.23237060643885       -4.71542264311023        8.38628352905628
C            1.92427683435484       -4.12825315938952        9.59903315758316
C            2.60758737326794       -4.26709293917807       10.74175718053505
C            3.26600669219783       -5.36818114257429       11.07645366161437
F            7.64565606200338       -5.01078652535436       17.84743780498844
C            4.40837317383464       -5.61098491528708        8.89878215552587
C            3.92183787729384       -7.34502683197791        6.51761796694859
C            3.99454985885608       -7.93023874630169        5.26733823958715
C            3.55051135036048       -7.19528245610186        4.15198666801505
B            3.39497069696136       -7.89176408551221        2.80029455271143
C            3.73398763794650       -9.40307804128686        2.68547270974370
C            3.65175598759828      -10.22697638779992        1.61813112128683
C            4.56373858595204      -11.38462845177221        1.48955996930153
C            5.51250553863508      -11.43793465094387        0.24765539688721
C            6.71274416996119      -10.51268494060922        0.50089346273564
C            6.00135116675920      -12.87723436504351        0.01923909344548
C            4.75769896641201      -10.96056747278370       -1.00308000304313
C            5.11522218336137      -11.91270905574122        2.78838850310833
C            5.00018209614460      -11.16294156425844        3.90721466571404
C            5.55788845829498      -11.29320344021009        5.24787761471158
C            6.31773272772463      -12.29824688690444        5.82921584980444
C            6.80894124031734      -12.13165719723291        7.11533952596209
C            7.65230774457065      -13.20816158243617        7.81564216053240
C            9.04191129260876      -12.63271870836757        8.14569324847909
C            6.94800123533735      -13.64144556633277        9.11465564904350
C            7.84051266299958      -14.45312160999267        6.92714330614854
C            6.53543221712935      -10.93245198105981        7.78076503192765
C            5.78746427676737       -9.92549174054440        7.20918360691872
C            5.26910517153862      -10.10313626265673        5.93290369383853
N            4.49067888151060       -9.25033568991069        5.06748665376379
C            4.34047769897252       -9.88908128667171        3.87932470575819
H           -0.39368296832236        1.09009891384665        0.49184736353727
H           -0.74416675181166       -0.12957245216266        1.71670722803468
H           -0.24624267636709       -0.61952074600235        0.09963007485908
H            2.05605781855780        1.44939084988235       -0.27765793146975
H            2.17433536595076       -0.26614170894596       -0.65546691954434
H            3.33879558382079        0.47401866271176        0.43927972946869
H            1.26094731247237        2.23301458038970        1.96492678280518
H            2.57856797199608        1.34729980640938        2.71928854766893
H            0.91126827402037        1.08852457515356        3.25355872658909
H            2.34130654244710       -0.52491186840301        3.85211718807004
H            2.99698042899717       -2.69386639308945        4.71761999388180
H            1.32403949265059       -2.26192542887286        0.08513378683645
H            1.36481340578478       -4.66203614127923       -1.02900328262503
H           -0.10321476114242       -5.73955544280170       -2.27966489659520
H           -0.61460976149608       -7.25521292619162       -1.54180132879261
H           -0.27447229770356       -7.18254566503433       -3.27064115744395
H            2.32504937886185       -5.44181119099092       -3.03304930313179
H            2.17447295974198       -6.86065290473670       -4.06625354636122
H            3.46788674670253       -6.77210779535220       -2.86995456377894
H            1.03802579348032       -9.23806429875375       -1.40834069866470
H            2.68278591113685       -9.03483809735473       -2.02877805883643
H            1.32002235830574       -9.05419286835863       -3.13534147827843
H            2.57891248261928       -8.60058188766727        0.12244768560845
H            2.73232336665995       -4.30952186605630        5.69886972619385
H            1.50766578637371       -4.59641504484823        7.59647124720166
H            1.03559475366932       -3.51690811518792        9.64532333338705
H            7.09265826255070       -5.83428993395720       17.78349243553704
H            5.28272374551508       -6.13920248151742        8.65670643181291
H            4.14640921662891       -7.92328677208669        7.39056869945848
H            3.33618368130521      -11.40820771095572        1.45537001414682
H            7.26639440254395      -10.82780056280893        1.38486382739636
H            6.38125906691341       -9.48740685956413        0.66406509749350
H            7.39699707938174      -10.51715647160173       -0.34710426686848
H            6.60791238219241      -13.22592088530970        0.85392366139086
H            6.61145877857875      -12.94193526907710       -0.88144703196509
H            5.15846087561015      -13.55838952201730       -0.09470232898581
H            4.44538858430382       -9.92367334636880       -0.88914799941469
H            3.86903567681028      -11.56681262312677       -1.17698341434749
H            5.38905085434511      -11.02275259736612       -1.88910604447478
H            5.63385144383433      -12.85227343293164        2.81783969826381
H            6.52035651479136      -13.18843544362053        5.26437214172036
H            8.96855305247133      -11.78067187383054        8.82008815654255
H            9.54557510771002      -12.29921392612759        7.23878482034955
H            9.67082280983684      -13.38272979627533        8.62469076661603
H            6.83814618741719      -12.80565550071795        9.80424203972549
H            7.51423556509384      -14.42076928630161        9.62406227352872
H            5.95332202509444      -14.03175739428825        8.90106257056184
H            8.35888942387101      -14.20071849370989        6.00250912904041
H            6.88087627105141      -14.90353958056355        6.67497854361673
H            8.43427379041706      -15.20864663427957        7.44126717766937
H            6.93088208631597      -10.78762160335853        8.77113647460528
H            5.64852568241056       -9.00054210607166        7.73474186675290
