112
 energy: -21.388112999470 gnorm: 0.000516875861 xtb: 6.6.1 (8d0f1dd)
C            1.25786545633167        0.25373064706937        0.13493993608577
C            2.71578488792394       -0.18215339433171       -0.10216449563933
C            3.63729454418819        0.50828531422889        0.91959289802797
C            2.80616362117908       -1.70551667398020        0.11294999985948
C            3.14109643279162        0.21889040828200       -1.52309173356876
C            3.10022677213799        1.57581566902058       -1.89448495323548
C            3.44954939786305        2.00214315157836       -3.15181895247666
C            3.86059786418800        1.05766011409995       -4.08761595424768
C            3.91216563199153       -0.29980609168321       -3.73871064768371
C            3.55382629077982       -0.71508364904875       -2.45593678556545
C            4.34605567321283       -1.02616130475037       -4.90924516333303
C            4.58388663690521       -2.38137981257882       -5.13637266301848
C            5.00858421207892       -2.80671816383013       -6.38097303346104
C            5.27179397780921       -4.30330580463246       -6.60909159220333
C            6.35458402028158       -4.78544220396957       -5.62561926835818
C            3.96933585552865       -5.08936632289186       -6.37153650727618
C            5.75801603537065       -4.58957996364080       -8.04283645955104
C            5.18583221412073       -1.85047457494577       -7.39970115097729
C            4.95377231673266       -0.51234416692263       -7.19425378857437
C            4.52978985312733       -0.09001142492609       -5.93768988637797
N            4.23790174974080        1.19482094589347       -5.43818782759227
C            4.26776870190891        2.42686474028969       -6.17609908218472
C            3.51808414518861        2.57464640327468       -7.33408713206643
C            3.50631815955234        3.77041726603242       -8.03289060089430
C            2.66127002266765        3.87928839175911       -9.24320006372656
O            1.80467425265485        3.04412128674146       -9.46041913273773
C            2.84951908802064        5.01610793198649      -10.17856857901565
C            4.11440780123072        5.45165302062802      -10.56102959609334
C            4.25551196994547        6.50415648307930      -11.43852800598560
C            3.13798540159467        7.12889481590991      -11.95581619251086
C            1.87726934579454        6.69381095489134      -11.59839037126217
C            1.73471653995338        5.64275815751735      -10.71914964371674
C            4.25514250252400        4.83550929039213       -7.54938147353380
C            5.02197290279037        4.70623589625249       -6.40070854521721
N            5.81840647116991        5.80410831625174       -5.92981133725741
C            7.19566089099144        5.75627007026960       -5.63332823855845
C            8.11368424840001        4.71202833991444       -5.70165280173194
C            9.42473295865492        4.95935610804032       -5.37598579435530
C            9.86980365003053        6.23479389012585       -4.97819693765146
C           11.33855207177202        6.51307033570435       -4.62248241612393
C           11.89797669376360        7.58475975777320       -5.57642598218822
C           11.42339285076686        7.01715054507976       -3.17001853871984
C           12.21023276832529        5.24875691296572       -4.74907077114893
C            8.95429644011929        7.26841687526536       -4.91477003151722
C            7.61883706038306        7.03506788169376       -5.24263519775976
C            6.46543520043905        7.90239896045445       -5.29332697941212
C            6.29827407966577        9.25661486105011       -5.00525588874881
C            5.05189688054547        9.83949706208788       -5.13570211065711
C            4.88686662723765       11.33178361324806       -4.80889473684503
C            5.28289561249823       11.57765671712180       -3.34113304721260
C            5.79657621489462       12.15846259938242       -5.73631564460298
C            3.43403393472467       11.80594146021819       -5.00508404812864
C            3.97232261958113        9.04177726248933       -5.56169156444372
C            4.11958910893406        7.70742225053312       -5.85188665349861
C            5.37790486239599        7.12660050345102       -5.72121541282900
C            5.02018345326359        3.49815546707777       -5.72167991700700
H            0.91923092410169       -0.03986954482534        1.12825437037509
H            0.59496594039648       -0.20659114845444       -0.59730120311687
H            1.14780121843221        1.33412819960351        0.05244619632349
H            3.36900194180192        0.22872487752354        1.93815490147102
H            3.57126598939923        1.59281541768957        0.84390404145164
H            4.67617784442233        0.22402490398039        0.75403533817167
H            2.49736252627468       -1.97205708297329        1.12357094719594
H            3.82684293670923       -2.06169680171450       -0.02405088383835
H            2.15666012475571       -2.23881813923398       -0.58078323306459
H            2.77913986404569        2.30251674639139       -1.16873884799845
H            3.40294774618198        3.04048547265020       -3.42790314634918
H            3.59798367958305       -1.76128500144114       -2.21976650735982
H            4.43524917015975       -3.08166390124671       -4.33557949214382
H            6.03637573373534       -4.65954813447815       -4.59158290684793
H            7.27724639807928       -4.22205168892884       -5.76259661401406
H            6.57808036310927       -5.84107721856810       -5.77817683898654
H            3.61017385248390       -4.96201640389079       -5.35114419624710
H            4.12035977367374       -6.15524258293516       -6.54083711088954
H            3.18536017041673       -4.74792319082902       -7.04696711025625
H            6.68799992624559       -4.06255101666515       -8.25451386032699
H            5.01242000211167       -4.28825772305701       -8.77809422391569
H            5.94460554889837       -5.65432592864578       -8.18178160807338
H            5.51331119590934       -2.17100090243963       -8.37242842701158
H            5.09444170882260        0.21009282054973       -7.97849330742459
H            2.91202181738581        1.75971088107224       -7.68576899250524
H            4.98303958667619        4.94683277389857      -10.17413502351932
H            5.23978181629368        6.83696529969005      -11.72530152627651
H            3.25023782503552        7.95067775245537      -12.64422936417625
H            1.00408940157651        7.17390557457496      -12.00925501535289
H            0.75774637083330        5.28456545147023      -10.44227254484125
H            4.25122276806790        5.77663810585316       -8.06680161748446
H            7.78756373502672        3.73602034806043       -6.01391705251783
H           10.12896836822199        4.14869201781182       -5.43154342001710
H           11.35023663162026        8.52181321022912       -5.48533636152214
H           11.82481023312103        7.25395461071680       -6.61214434553262
H           12.94636510476857        7.78991558246309       -5.36101812794520
H           10.86677669534998        7.94414747371150       -3.03873119215636
H           12.45740662969796        7.20640291957640       -2.88259540635234
H           11.01152668163861        6.27924883780076       -2.48202424353277
H           12.19922708962017        4.86452665570687       -5.76872503039781
H           11.86319636023407        4.46357463330160       -4.07789933940196
H           13.24654769674994        5.46688154638238       -4.49159222894364
H            9.25797696384067        8.25603234631308       -4.62122392641707
H            7.14493552654142        9.83266904742053       -4.68104580734641
H            6.32317001032544       11.31002552523668       -3.16060387663215
H            4.66332193792120       10.98274916152238       -2.67054143148395
H            5.15829580099870       12.62677272667942       -3.07387233228974
H            6.84537990228116       11.89991455970281       -5.59640048134128
H            5.68778545869444       13.22491920824251       -5.54029875317322
H            5.54461460201628       11.97991229259063       -6.78135284578077
H            2.75173908997472       11.26107253771863       -4.35314627039791
H            3.11225966551677       11.66938737538643       -6.03717114254882
H            3.33848078250554       12.86552939643046       -4.76854469074473
H            2.99759272352472        9.48425999886878       -5.66326488860699
H            3.28578196507442        7.10622346868406       -6.16792716190627
H            5.60230720243691        3.39279952535967       -4.82556133744376
