111
 energy: -21.252673913381 gnorm: 0.000801544260 xtb: 6.6.1 (8d0f1dd)
C            1.59902420676061       -0.53851653966138        0.38926121531827
C            3.11264839458064       -0.47364119092922        0.11387198052499
C            3.55886749327561        0.99881964701069        0.19764262105826
C            3.87029912075090       -1.27135788701971        1.19130342077313
C            3.40191064592733       -1.08266017832309       -1.26687092675261
C            3.98037097317562       -0.33302562982977       -2.30902417312567
C            4.22992819049796       -0.87431309445084       -3.54620605979057
C            3.90268182827994       -2.20793039811055       -3.77526016307905
C            3.31979573790990       -2.97023003041345       -2.75229073168039
C            3.07370282643755       -2.40461878793591       -1.50143857343991
C            3.07333524037271       -4.28904540073871       -3.28621419774662
C            2.52915728905501       -5.44257302965928       -2.72183943485316
C            2.41954085191165       -6.59386014929752       -3.47873763284585
C            1.81359750906901       -7.85394382053313       -2.84161040978865
C            2.65062299551380       -8.25661061282210       -1.61328024690940
C            0.36641600194150       -7.55662622768163       -2.40813864734269
C            1.79269437805623       -9.04113361232088       -3.82369034315415
C            2.86579409271619       -6.57161932927289       -4.81398898978237
C            3.40391610072817       -5.44488411952185       -5.38541161032108
C            3.50803542599792       -4.28689064438958       -4.61971078510528
N            4.02245587402420       -3.01112972890729       -4.92738772083216
C            4.56386473167079       -2.59994560998172       -6.19109860826070
C            3.87499348916724       -2.85897963325481       -7.36753668525957
C            4.37306010907751       -2.46346347891921       -8.59770426401466
C            3.58246139082919       -2.77998870214195       -9.80890279749261
O            2.58965796322309       -3.47601505304258       -9.70203035857509
C            3.97142955884268       -2.26157081042440      -11.14203004227964
C            3.17386100409781       -2.61147847183230      -12.22083482303078
C            3.48062023482917       -2.15495230444198      -13.47470182311683
C            4.58854690771832       -1.35311335107208      -13.61026159946509
C            5.32489271532303       -1.05313196279099      -12.49048388502108
N            5.04837646969189       -1.48148603221290      -11.27181527246374
C            5.59004395629930       -1.79926600990963       -8.63209978815555
C            6.29998239167766       -1.52962925340256       -7.47408369825667
N            7.55043476998100       -0.83270068906769       -7.54852353611295
C            8.74058645788674       -1.18053781892406       -6.87743635199670
C            9.03863786067348       -2.23529306495851       -6.01882299449150
C           10.31333307189310       -2.34586654624672       -5.52004259920097
C           11.32936225480098       -1.42939730383082       -5.85198838455730
C           12.75677456455814       -1.55690486369322       -5.29727758137600
C           13.74258829428871       -1.73254942814213       -6.46705187345685
C           13.11124123985945       -0.28341167484582       -4.50760475576515
C           12.90146031109879       -2.76756461146080       -4.35501063309575
C           11.03082596672919       -0.38880974280461       -6.71125700911110
C            9.74114285825693       -0.26158258798017       -7.22716635424102
C            9.15311670302741        0.68583125824109       -8.14459337194013
C            9.67588432775183        1.79511037493979       -8.80946432501454
C            8.86884060484895        2.53698678557883       -9.65138960476772
C            9.46083888544088        3.75495516075559      -10.37732354090964
C            9.96917324830947        4.76944235348479       -9.33649812877111
C           10.62959005060775        3.29642257713851      -11.26877263107758
C            8.41715027027350        4.45581852725352      -11.26849592769658
C            7.52535665445090        2.15011865255025       -9.81613858645245
C            6.99491992577454        1.06136933241539       -9.16967466349809
C            7.81324149149711        0.31346721048783       -8.32681182992412
C            5.77740357333675       -1.93363508229601       -6.25617519142715
H            1.35919656518981       -0.09900183367955        1.35714024691564
H            1.24099777120023       -1.56715203743015        0.39319635237501
H            1.04554292417049        0.00617086305052       -0.37514122346848
H            3.35123538034227        1.40939665397569        1.18559610271153
H            3.02858531734995        1.61198836418885       -0.53045020841499
H            4.62964236785210        1.09530378696827        0.02008520590840
H            3.69923084902120       -0.84952001062255        2.18140153340596
H            4.94264598534561       -1.25578059924878        0.99835893669085
H            3.54946332291883       -2.31194149196317        1.21370913090905
H            4.23377033703381        0.69810426611172       -2.13961658530807
H            4.65908734224005       -0.28700759630133       -4.33815814326141
H            2.62291244747638       -3.00531464121528       -0.73356064099404
H            2.19948791938417       -5.42151023335904       -1.69980610415172
H            2.64989383708819       -7.47205598785362       -0.85784477843375
H            3.68522334993041       -8.44585373882219       -1.89818522213924
H            2.25644976387670       -9.16205553105887       -1.15254495412001
H            0.33051108301965       -6.75581889784479       -1.67075476661217
H           -0.09747250996648       -8.43797726478944       -1.96601168669047
H           -0.23588437235494       -7.25095092065628       -3.26321157367035
H            2.79999377671101       -9.29806735374060       -4.15027832696852
H            1.19000507429368       -8.81351283857234       -4.70243423823010
H            1.36429214251081       -9.92511015641679       -3.35178169958649
H            2.78604675881290       -7.46152883992935       -5.41214247872651
H            3.74703900236654       -5.44327134904665       -6.40454875967899
H            2.92816623453920       -3.36612163863117       -7.33207214685450
H            2.31741130395220       -3.24121865912567      -12.04918744339107
H            2.87375828608579       -2.41653107634676      -14.32623810387371
H            4.87478932803195       -0.97050707799555      -14.57638982070049
H            6.19566936164025       -0.42273708449483      -12.58550293248815
H            6.00813907189210       -1.48265622332345       -9.56644886244204
H            8.27707733269313       -2.95247117184948       -5.77030988462383
H           10.53646369727593       -3.16337020464374       -4.85820255041028
H           13.72020608255402       -0.87392137240158       -7.13677178157532
H           13.49327683642260       -2.61849958963910       -7.05038142502269
H           14.76368374961040       -1.84440526536805       -6.10328391725622
H           13.07929565012076        0.59980061995313       -5.14414431298367
H           14.11325429883800       -0.35284535074887       -4.08495786315213
H           12.40912731555887       -0.13102518320321       -3.68836557922608
H           12.68084292678371       -3.69909890933213       -4.87546909755158
H           12.23245415243105       -2.68129588322232       -3.49923814506253
H           13.91896101283569       -2.83858222084578       -3.97116240892228
H           11.78198425551238        0.32499994342018       -6.99399079971012
H           10.70580208860702        2.06015469036205       -8.65872804177956
H           10.75267436660896        4.33973066580347       -8.71378237019147
H            9.15828419397428        5.08778145918412       -8.68185829055547
H           10.37820168896408        5.65496050682958       -9.82234114829778
H           11.42397671120681        2.84196143446895      -10.67827905262085
H           11.05853555048081        4.13750086659297      -11.81289843255193
H           10.29138330737518        2.56023002533341      -11.99748344833106
H            7.57568032195492        4.81712447611511      -10.67795372883279
H            8.03900736164756        3.78069782680147      -12.03569061804290
H            8.85627086442892        5.31517013352394      -11.77479718462522
H            6.88781324562320        2.72011086246574      -10.46786628671173
H            5.96576206705746        0.78093403787192       -9.30399913318619
H            6.31583141468539       -1.72399062953008       -5.35147637831538
