111
 energy: -21.193944942787 gnorm: 0.000568347904 xtb: 6.6.1 (8d0f1dd)
C            1.52573795475515       -0.23068387464108        0.25992534646291
C            3.02348326880530       -0.36663095175615       -0.06913373812515
C            3.86248185805211        0.25288743115576        1.06403041636828
C            3.36805658391232       -1.86598415566479       -0.16069535886427
C            3.31977277287965        0.36731019452710       -1.38619653659266
C            3.11057882231693        1.75701546926593       -1.46046115645787
C            3.34030250916147        2.47249157832081       -2.60945803797559
C            3.79338498541645        1.79705398550639       -3.73887079320466
C            4.00242586678330        0.41099702262965       -3.68954847275854
C            3.76663525111756       -0.29962451216476       -2.51234919999734
C            4.43351838790295       -0.00385020900888       -5.00399903962434
C            4.78263052211443       -1.24865238345351       -5.52694597556796
C            5.16648019889768       -1.35674520031391       -6.85031141034292
C            5.54870178109715       -2.73674698205360       -7.40746886560103
C            6.73453676500534       -3.30019959692894       -6.60247433597482
C            4.34186194747349       -3.68511946728058       -7.28480560181172
C            5.96064181184812       -2.66381303397473       -8.89038353646232
C            5.19214749915150       -0.19460385583319       -7.64527663609149
C            4.84852132928636        1.03856891121170       -7.14782365825455
C            4.46226094868935        1.14054999807732       -5.81458081648106
N            4.07434670348852        2.25336959479611       -5.04217850956107
C            3.95896845182018        3.60924822980685       -5.50070289326885
C            3.18809190071309        3.91802770319033       -6.61253628188535
C            3.05595076672858        5.22550223583895       -7.04840431576918
C            2.20454326453275        5.51592558802492       -8.22368564656713
O            1.40728469971873        4.68434831500439       -8.61315435502339
C            2.33715025358058        6.83851774232462       -8.89504263222013
C            3.59244182343461        7.33438660531865       -9.21456917501594
C            3.67639447934850        8.58440964197115       -9.76455519637250
C            2.48368185040299        9.25634176687655       -9.95759072148325
N            1.35390014009471        8.66661170112257       -9.62445232437546
C            1.22280502442371        7.53505572052033       -9.13348058767410
C            3.69784489926354        6.23582042538269       -6.34634538041068
C            4.47800978285729        5.94951941352099       -5.23682721518491
N            5.15115101681672        7.00430599264006       -4.53410594924996
C            6.52416055670467        7.04411116689932       -4.21883823821458
C            7.55034619209035        6.13811507809620       -4.47119763071671
C            8.82665253985887        6.45571212016536       -4.07612852371163
C            9.12976630357847        7.66794664000150       -3.42685999175805
C           10.56068275515524        8.03017324684643       -3.00012067579838
C           10.98973083487884        9.32648994410802       -3.71232097428514
C           10.59922197870999        8.23943292336161       -1.47520665311973
C           11.56701080891741        6.92153756105321       -3.36406852447770
C            8.10635408628862        8.56313783168691       -3.17827197559717
C            6.80430008619661        8.25761373056306       -3.57380492822384
C            5.56326239609531        8.99013810053011       -3.47961436125332
C            5.24732705201375       10.23414515886462       -2.93414115279320
C            3.94525262404742       10.69559670081390       -2.97955693584123
C            3.61628110444690       12.06701068343964       -2.36975981023802
C            3.98568879655490       12.06089642397702       -0.87468288417293
C            4.42657190300184       13.15416172155311       -3.09935715034629
C            2.11923508210119       12.40855569974124       -2.49746554266684
C            2.96158945877978        9.88955836191765       -3.58430927422839
C            3.25503978798710        8.66282893787320       -4.12745856424165
C            4.56848520394953        8.20425884862003       -4.07962565906444
C            4.60291281034992        4.63284199443956       -4.82330002256204
H            1.27978727460482       -0.75458225073496        1.18323397090666
H            0.91662274127172       -0.65145718239032       -0.53965677698163
H            1.24084761151982        0.81338020525069        0.38268060110637
H            3.69616423354831       -0.27280722973073        2.00398144446886
H            3.60792439808308        1.30004882861887        1.22095744819708
H            4.92527995614489        0.19761943148703        0.83006189807720
H            3.16723620865844       -2.36722279756402        0.78592378375745
H            4.42234326791904       -2.01204037092044       -0.39429546546631
H            2.77117512291733       -2.36040376638265       -0.92657097955868
H            2.75131413996161        2.27465354682152       -0.58823132880976
H            3.16592698306505        3.53261556054218       -2.65635815129013
H            3.93034083385808       -1.36045320798776       -2.50705468111284
H            4.74939148719987       -2.11320264082260       -4.89044051090832
H            6.47680373829632       -3.42611612212183       -5.55177899195736
H            7.59119587737974       -2.62913076982207       -6.65875593445019
H            7.04116785384382       -4.27210826265097       -6.98828546090813
H            4.04330856827062       -3.81396079449030       -6.24531022015909
H            4.57664668504547       -4.66971142165803       -7.68839259946491
H            3.48602695869826       -3.29096481728800       -7.83207188843610
H            6.82369531803398       -2.01270124763875       -9.02641393494876
H            5.14329534032697       -2.29117679388688       -9.50708116915212
H            6.23114259135697       -3.65085620513256       -9.26486321201126
H            5.48825113522958       -0.26697970029458       -8.67638774945588
H            4.87371876888989        1.91991828457633       -7.76361034654256
H            2.66282923488334        3.13852296887860       -7.13355560587145
H            4.47299571794580        6.74356930318593       -9.02726845281246
H            4.62385588240227        9.02530277754832      -10.02734291394379
H            2.47969592567221       10.24914497788294      -10.38227005689756
H            0.03814024725984        6.26138242722940       -8.62213044165001
H            3.59795292998380        7.25710475160949       -6.66387194739915
H            7.33321744808410        5.21476262344646       -4.97784732843532
H            9.61531496591808        5.75287434511867       -4.27657526379868
H           10.34169704948395       10.15966911781308       -3.44375324259460
H           10.94536615535947        9.20365943403267       -4.79414757652740
H           12.01036062742109        9.59915680747788       -3.44509163384993
H            9.94366489807707        9.05402557752306       -1.17028908763819
H           11.60770635135465        8.48050500420070       -1.14003799588439
H           10.27692881515187        7.33783875976313       -0.95500240517812
H           11.58982580135084        6.74993882146972       -4.43989393124539
H           11.31570965849998        5.98464340770334       -2.86771380643253
H           12.57462465693859        7.19789209288093       -3.05417883283454
H            8.30012403972373        9.49981750735850       -2.68962536542410
H            6.02452986220826       10.82100544668761       -2.48110279209034
H            5.04972841091414       11.87926388047674       -0.72955234463171
H            3.43810075944576       11.28087176445326       -0.34640421266473
H            3.74505892943436       13.01649160155834       -0.40949429392014
H            5.49776531994101       12.98902330586268       -2.99164896692454
H            4.20025423130954       14.14285665366632       -2.70096052953533
H            4.19408681981628       13.15758380038952       -4.16392121367190
H            1.50333503928457       11.67185361953343       -1.98243858555584
H            1.81315880850705       12.44817512805139       -3.54245062369472
H            1.90626404097712       13.38172959434532       -2.05559699138050
H            1.94531310850798       10.23830558014754       -3.62521222471574
H            2.49381566434917        8.05344476015931       -4.58109092106032
H            5.19989302179500        4.40266996442129       -3.96106209191001
