111
 energy: -20.997136662701 gnorm: 0.000856867594 xtb: 6.6.1 (8d0f1dd)
C            0.40252214127887       -0.16208838271207        0.49612159658500
C            1.91326135099001       -0.18860655945067        0.19985176761557
C            2.14789395673935       -0.01874144178407       -1.31259287756458
C            2.57163863168123        0.99869728956423        0.92883067099081
C            2.49652496267864       -1.53543421337953        0.65504775383850
C            3.51965699966930       -1.61952917163666        1.61882377577726
C            4.04917354983857       -2.82171460784901        2.01891044552644
C            3.55589402985023       -3.99454337440976        1.45420935303961
C            2.53948861434403       -3.93336686194651        0.48964578716502
C            2.01244698767079       -2.70330315729671        0.09598391676783
C            2.26208158179067       -5.28810480552435        0.07305468302463
C            1.35723366317573       -5.82096662804967       -0.84491245244372
C            1.30394696136299       -7.18747703062981       -1.04590571203100
C            0.29978814324026       -7.75648970756747       -2.06028531018937
C           -1.12810504020646       -7.36504308352212       -1.63691958675722
C            0.60377774669690       -7.17841303481063       -3.45467624362323
C            0.37634023364873       -9.29316274589028       -2.14452773607862
C            2.17485838059655       -8.01470682325436       -0.31096544589268
C            3.07322232970981       -7.50719624058408        0.59524690106163
C            3.12398956180772       -6.13007383093175        0.79129144291039
N            3.92085283574696       -5.34237278218234        1.64598056797694
C            4.95171149707281       -5.81761300017164        2.52473009194119
C            5.94298163908474       -6.66729889855557        2.05315948561561
C            6.96317957761322       -7.10112987937981        2.88210533657025
C            7.99998945662579       -8.01283527571462        2.35692768947087
O            7.93165924893719       -8.43628098236733        1.21891785271403
C            9.11283193346984       -8.41573797094376        3.23825927815705
C            9.93375961010494       -9.46531988337672        2.87564744195076
C           10.94121660987975       -9.82651152306550        3.74404189199156
N           11.07169271653925       -9.14858901609001        4.87561257476954
C           10.26824213759014       -8.17470235684772        5.14058615363057
C            9.29251516816789       -7.75149918496721        4.38135720381299
C            6.97925468267077       -6.67396165528536        4.20043793842504
C            5.99324718304638       -5.84219003525511        4.70051108542585
N            6.02627215102434       -5.43331331977260        6.07372700475504
C            4.94206845642365       -5.46780303908680        6.97391108126985
C            3.63255427785973       -5.91422289452467        6.81871172343454
C            2.78324361813271       -5.86647603282729        7.89693566186776
C            3.19466859707257       -5.38223009346759        9.15352283165196
C            2.25131205279238       -5.35040974343208       10.36597171458556
C            2.83828359734837       -6.22734152040588       11.48770553096813
C            2.10903652336752       -3.90002147676460       10.86280739058579
C            0.84868411406642       -5.88426639860054       10.01704681891457
C            4.49517511708214       -4.93834232490596        9.30129022406858
C            5.37164606562047       -4.98160158796439        8.21732971408689
C            6.76511551901093       -4.62893939902136        8.08254587391136
C            7.68652284267650       -4.09242083842648        8.98155699581082
C            8.98436264690647       -3.84800100833660        8.57420824983373
C            9.98397514365810       -3.25136487988870        9.57697159386758
C            9.45297304455123       -1.89626286545167       10.08079744769951
C           10.14829991957352       -4.21743405166284       10.76441939289884
C           11.36838301046148       -3.02212808421044        8.94051322913884
C            9.34784939226186       -4.15952392081242        7.25014078855269
C            8.45393678291788       -4.68962878500682        6.35279931447440
C            7.14572581362255       -4.92754449552057        6.76599941704180
C            4.98357634002718       -5.41652500173540        3.85189235703063
H           -0.03597862307565        0.79102554474410        0.20143468501383
H            0.21676032057679       -0.30444601489090        1.56036436755529
H           -0.12113666195945       -0.95012222726829       -0.04338036000662
H            1.76037687082255        0.93776016552920       -1.66254502666455
H            1.65440840229097       -0.80577761049355       -1.88121301040027
H            3.21220090533034       -0.05647031223919       -1.54332867658756
H            2.14305340342485        1.94310038479051        0.59393491775308
H            3.64257165813152        1.03584345977215        0.73109076773292
H            2.41894907865197        0.93189248628582        2.00565909953326
H            3.90693915116821       -0.71739531464030        2.05736600330492
H            4.83939388347280       -2.87214848386870        2.74649879465052
H            1.23721447091577       -2.67807492359945       -0.64704353336273
H            0.70825880394457       -5.15874635827375       -1.38713637588072
H           -1.25301954337244       -6.28328108897304       -1.61565204521765
H           -1.35260470503987       -7.74748576422166       -0.64156202202146
H           -1.86533252474737       -7.77148888967047       -2.32888493389753
H            0.51032238138104       -6.09328665387939       -3.46279108840694
H           -0.08311336051890       -7.57743955416769       -4.20064170132345
H            1.61872960401378       -7.42907221962227       -3.76194357852861
H            0.15144921518084       -9.75075948216943       -1.18152685330071
H            1.36600174988194       -9.62018198229428       -2.46222165318643
H           -0.34398625402518       -9.67661473473490       -2.86686841053028
H            2.14135287798593       -9.07926469811851       -0.45825989141159
H            3.72986317875208       -8.14942758358841        1.15459602923648
H            5.93304385319346       -6.98434659345454        1.02671786524912
H            9.77061148955267       -9.97805874527502        1.94347944448337
H           11.60314117225512      -10.64744021619779        3.51067952238760
H            9.42626950726584       -5.83260885911864        3.02765172633935
H            7.54430967952478       -8.79755991706979       -0.77611520806009
H            7.78502171726201       -6.98383594086545        4.84138426357389
H            3.31087652698316       -6.30281906710073        5.86907201922515
H            1.77476777023512       -6.21775225024765        7.77139550243689
H            3.81011641261678       -5.85787435773649       11.81228018156861
H            2.96828792056992       -7.25363481384496       11.14527101500899
H            2.18062236925330       -6.24197382851549       12.35647324657355
H            3.06935320373779       -3.49197225351568       11.17519808662322
H            1.43104735270219       -3.84424664782890       11.71414551223001
H            1.71413540687796       -3.26024260518196       10.07406718278410
H            0.89540574255402       -6.91933000975295        9.67962037060488
H            0.38348780536694       -5.28441598805852        9.23532514017397
H            0.19556147395181       -5.85232111143063       10.88891976954220
H            4.84731239749690       -4.56856903316454       10.24625993490645
H            7.37363980173058       -3.87289728684539        9.98536640899983
H            8.49841043261451       -2.00937273532256       10.59293649495227
H            9.30708585059613       -1.20707270357915        9.24943337663594
H           10.15272925417866       -1.43866302736908       10.77970065290527
H            9.20306054826716       -4.37099531041292       11.28341983376779
H           10.86603631956218       -3.82942759033924       11.48677845301382
H           10.50409388877201       -5.18915999527150       10.42302035677987
H           11.30375824335386       -2.33328553445369        8.09863963437028
H           11.79994494945879       -3.95938882579382        8.59042408764606
H           12.05999177243647       -2.59245526263406        9.66491809856550
H           10.35711237837528       -3.98280444383741        6.92414971197321
H            8.75074849070233       -4.93791817248338        5.34998949616729
H            4.21974787574118       -4.76038640005325        4.22436063588660
