68
 energy: -12.995655736723 gnorm: 0.000609015874 xtb: 6.6.1 (8d0f1dd)
C            0.64499625738645        0.07747166987163        0.27461896907070
C            2.16232012025463        0.01860967843778        0.01989440962399
C            2.43709020532437        0.08164746006341       -1.49387878971349
C            2.81416355961242        1.24725875443060        0.68285046160726
C            2.71990793878572       -1.29828951136442        0.58142306288849
C            3.70944055929600       -1.32443212255190        1.58279733955554
C            4.21177159255257       -2.50056724131549        2.08224631144247
C            3.72485157701920       -3.70522942527917        1.58312151388212
C            2.74392849895712       -3.70169863608508        0.58049372098735
C            2.24338176681511       -2.49714484933823        0.08629315010204
C            2.46332633359900       -5.07862715394222        0.25074157593842
C            1.58253905366183       -5.66510674598477       -0.65798939339512
C            1.51488098276055       -7.04136855865487       -0.76134362861934
C            0.53884243375547       -7.66919149354052       -1.76832948876150
C           -0.89739563962663       -7.23516794886256       -1.42222324215236
C            0.89692909283360       -7.19172723503593       -3.18770192183022
C            0.59977762786273       -9.20852541042997       -1.74405493487578
C            2.34437468498030       -7.82426033807793        0.06436906082001
C            3.21765833267443       -7.26385115543365        0.96365360718703
C            3.28599507768772       -5.87684263656723        1.05934621127523
N            4.06302498118739       -5.03964074722240        1.88520921699457
C            5.03218160960247       -5.46727934010865        2.85517397745249
C            4.98412122428170       -4.99633758830447        4.16184820948412
C            5.92033287188548       -5.42040490218895        5.06564205061485
N            6.87588518888606       -6.28810290085283        4.69658799535520
C            6.97463882347893       -6.77038132981009        3.42965446302616
C            6.03324357551574       -6.35648428928173        2.50056051870666
C            8.03734299516258       -7.71686869885037        3.11409608118752
C            8.37774500904167       -8.06676731523869        1.81096473932005
C            9.35514296785864       -9.00428621856983        1.56242381018426
C           10.01227006959003       -9.61914148650796        2.61201185540354
C            9.69858509123499       -9.28869051980379        3.90706411413362
C            8.72228614164630       -8.33143973535085        4.18356301337378
O            8.43441486580984       -8.01099279803316        5.48605719582525
B            7.95729920026416       -6.63791907901154        5.72177631620661
F            9.00569322352688       -5.74296357715968        5.52590756844596
F            7.41673673974669       -6.50504448429038        6.99668539908976
H            0.22320777748164        1.01031084492180       -0.09789976403388
H            0.43135981825754        0.01241104396936        1.34086846371944
H            0.12778952136341       -0.74278593830719       -0.22071869193358
H            2.07152247501077        1.01612813869348       -1.91799424050520
H            1.94735845200087       -0.73632738157899       -2.01996999405435
H            3.50595689245158        0.01565926200893       -1.69371045512598
H            2.40562478378043        2.16993673817982        0.27209322680722
H            3.89007206765941        1.26010816474082        0.51263300388188
H            2.63143856490251        1.25662797151261        1.75670786337994
H            4.09096639339649       -0.39786245011513        1.97193079013310
H            4.97639948285139       -2.50789337766485        2.83823011362075
H            1.49231503866001       -2.51635280628048       -0.68097138943095
H            0.96266279398001       -5.03592046738136       -1.26876094403463
H           -1.00963610678759       -6.15376001239461       -1.48147427168216
H           -1.15926585404099       -7.54401765573586       -0.41091943514316
H           -1.61591348302283       -7.68227165981066       -2.10824574789278
H            0.81550413708076       -6.10930152373815       -3.27384817332169
H            0.23193210161897       -7.63552970377697       -3.92773272082354
H            1.91876156021547       -7.47164212321246       -3.44118187120732
H            0.33488283732272       -9.59618141798029       -0.76105099129817
H            1.59600549996622       -9.56578970911002       -2.00218224726869
H           -0.09857863538504       -9.63411773654368       -2.46392124672919
H            2.29677491860330       -8.89597051703084       -0.00460668790288
H            3.83849212988214       -7.87233727044487        1.59650403613516
H            4.20416493813382       -4.31362798587108        4.44970614812875
H            5.91921794006037       -5.07436783481128        6.08497559555763
H            6.06397438098486       -6.72253008306849        1.49223056915490
H            7.87857273442813       -7.59100693227037        0.98600759546820
H            9.60866891049629       -9.26059167093792        0.54695128642128
H           10.77519013814857      -10.35383340225473        2.41358160304292
H           10.20572315558950       -9.75044459345073        4.73540405710238
