132
 energy: -26.013625077893 gnorm: 0.000238455233 xtb: 6.6.1 (8d0f1dd)
C            2.46468952460154       -0.61098858699417       -1.74489965974698
C            3.98282053776098       -0.75276215309020       -1.52858180043902
C            4.30418975097737       -2.24537316212416       -1.31907577895754
C            4.73384875955489       -0.26526792980452       -2.78065604502153
C            4.40342622955356        0.09567337901833       -0.31862189472576
C            4.17236539040180        1.48266819654407       -0.33769311446347
C            4.48821222598175        2.29364172625347        0.72473675779048
C            5.05741128997433        1.72260570699688        1.85967128928310
C            5.31638216302419        0.34385214843109        1.88936688343932
C            4.98529648998072       -0.46561482713083        0.80356059280663
C            5.85608003398610        0.03543554077861        3.19277934583960
C            6.21281366476112       -1.17115827921862        3.79403664696098
C            6.61771727606519       -1.19037145481218        5.11590397354705
C            6.97574463077386       -2.53210334936669        5.77346457455887
C            5.73304085705381       -3.44101615399562        5.77450338559032
C            8.11016776333368       -3.20486835640883        4.97898059655989
C            7.44666348977174       -2.35062644689669        7.22954677264066
C            6.65295091793857        0.02193534393190        5.82830609150207
C            6.30126420615449        1.21781692711337        5.25217307756879
C            5.90547613228584        1.23567774637258        3.91698826787792
N            5.41928871073787        2.28713136702311        3.10400154793838
C            5.00119013122996        3.56595662703098        3.60677158774309
C            3.69330796169776        3.99686975021445        3.40286632194774
C            3.20101323213563        5.08576969445500        4.07894364051897
C            3.99712500627535        5.78649680131675        4.98847398287775
C            3.37236945367959        6.75766540798151        5.91345791438881
C            2.32189741901276        7.58680365000288        5.50359156798050
C            1.55038366010931        8.25171329329720        6.42721185042852
C            1.78770979756682        8.10555139768662        7.78833028608128
C            2.89236776662055        7.35070706299445        8.21215896408039
C            3.66991035098518        6.69882558768325        7.27278938702048
C            3.14696564004672        7.12548174553221        9.64627889103285
O            4.21315998662411        6.68863863112515       10.03783701845243
C            2.02874091248561        7.36982603476214       10.56966377990860
C            2.04113368391764        6.80678573332383       11.83800172233247
C            0.91398621699257        6.82251822035145       12.62350086555859
C           -0.27019794848090        7.42080901826710       12.17380625945088
C           -1.55404274462623        7.15442670592731       12.85901242561881
C           -2.73815011522023        7.07663428391167       12.11985295899991
C           -3.89041583650739        6.57969303899395       12.67670201837731
C           -3.90604166919354        6.12459105704525       13.99140674580587
N           -5.02097600545115        5.35927394786573       14.47292877072808
C           -5.60313382937050        5.39601902960119       15.75860251467174
C           -5.38875415731810        6.24285108540697       16.84213111972353
C           -6.09614566089838        6.03074685079636       18.00080073655950
C           -7.03090163547471        4.98625537189275       18.12713881282384
C           -7.80679655505165        4.73393430332384       19.42888041574014
C           -9.31769613733855        4.83162108210252       19.14831417870835
C           -7.46767402070071        3.32718103853183       19.95569312481208
C           -7.44786344567103        5.76084811107238       20.51970031824401
C           -7.24759812627759        4.15443467033994       17.04477457669977
C           -6.54129171418158        4.35733757785575       15.86095803828362
C           -6.53764787309482        3.64457960993714       14.60462994756730
C           -7.22519331860218        2.51354221899405       14.16513102234898
C           -6.97610273933236        2.00060322608220       12.90523180102870
C           -7.73126296399908        0.74635620859007       12.43899175495275
C           -7.39691569195579       -0.42514506259171       13.38016293755213
C           -9.24569000561853        1.02208618531137       12.47003384957747
C           -7.34262667397316        0.34206249724145       11.00339875534522
C           -6.01825920221426        2.63620793631556       12.09486441622320
C           -5.33210945674461        3.74942349678968       12.51305861480230
C           -5.59655834674882        4.27205567372877       13.77645875895318
C           -2.75457636219904        6.27480482233580       14.75984275841588
C           -1.60269341794448        6.78290266954819       14.20615135261229
C           -0.23850384868607        8.08062479211556       10.94575035431556
C            0.88203009555922        8.05072173402716       10.13376907871162
C            0.81269276912372        8.60908413754607        8.76974009093864
O           -0.05872239656692        9.39744179049747        8.45402548531371
C            5.32991331282331        5.39468697745577        5.13501979603598
C            5.82311640909141        4.30836975067821        4.45173638014393
H            2.13153912872257       -1.22062767971440       -2.58433155342676
H            2.18821318698963        0.42154359679512       -1.95331818370239
H            1.91841189932335       -0.93083390286743       -0.85798564586776
H            3.99957021215229       -2.83158885590758       -2.18570444734482
H            3.77674256162928       -2.64219920674369       -0.45209312900125
H            5.37309592508623       -2.40037436645874       -1.17572952477095
H            4.46876270775197       -0.86397560878292       -3.65164394158337
H            5.81122206547688       -0.33870449548430       -2.63564430418300
H            4.49642590623399        0.77330602989410       -3.00636816104601
H            3.72551287445646        1.92158840770056       -1.21257641180940
H            4.30602769515116        3.35303921149340        0.69431512667253
H            5.17488727604581       -1.52015682123868        0.86777262852833
H            6.14764317693888       -2.08019429825033        3.22570772847163
H            5.38908210437544       -3.64180956886317        4.76079506026786
H            4.91387535190305       -2.97160231256348        6.31850894893869
H            5.94929372575690       -4.39754268511534        6.24946387831851
H            7.80797527788901       -3.41259137484854        3.95357448262361
H            8.39970777347145       -4.14986731735578        5.43777330168287
H            8.98955976740609       -2.56244018506263        4.94567763956143
H            6.66205465893905       -1.91136306789334        7.84483267589542
H            8.32714542269338       -1.71081103420962        7.28010130020387
H            7.71088958583764       -3.31057799820011        7.67244272356557
H            6.95356812199082        0.01914361953930        6.86062537557054
H            6.30545580547718        2.12966583971277        5.82101374637486
H            3.04910416934943        3.41753574062084        2.76493939278085
H            2.16589803963778        5.36022434091199        3.97004041417789
H            2.09057864666901        7.66108096094623        4.45496305097773
H            0.70689998178327        8.84453653909891        6.11650032062174
H            4.45687290499107        6.05551358367053        7.62383493398611
H            2.93130839515567        6.29359167968030       12.16027250768455
H            0.91863480755345        6.29825047135669       13.56277799956078
H           -2.73079643304483        7.34438295334897       11.07795174542181
H           -4.78813058600960        6.49741901579404       12.08859003478921
H           -4.68285173779962        7.04947082692616       16.75652482484381
H           -5.92358798989703        6.68739577546800       18.83450191541161
H           -9.63538467462999        4.08484854419738       18.42200684461601
H           -9.57247155172679        5.81385375831305       18.75150282204109
H           -9.89439483387269        4.67541813651564       20.05952464976209
H           -7.75238173598642        2.55689645908589       19.24027494222863
H           -7.99047577999371        3.12363144549864       20.88977442375084
H           -6.39789894715446        3.23303946727548       20.13999161621715
H           -7.68433098496822        6.77441216182370       20.19738221083376
H           -6.38843416901289        5.71373527064240       20.76980549273951
H           -8.00991280348893        5.56625489943128       21.43279169212105
H           -7.95010313289456        3.34415601188598       17.10433519431758
H           -7.93618175852246        2.04422000256876       14.81917353969896
H           -7.70147776313342       -0.21006386195166       14.40344801017994
H           -6.32501778112870       -0.62094130893824       13.38433142831458
H           -7.90514336495973       -1.33604426934575       13.06506761477055
H           -9.58563792065669        1.25714803663985       13.47757469111920
H           -9.80690045948570        0.15480094376857       12.12333862080002
H           -9.49604807680941        1.86515868064971       11.82676935809711
H           -6.28119043566446        0.10564417582413       10.93518111876297
H           -7.56702958012652        1.14031897507145       10.29652797144580
H           -7.89608217911671       -0.54202058727590       10.68785354296261
H           -5.80604897080220        2.24027019880004       11.11799395070564
H           -4.58505287815400        4.20697592171672       11.89031391459478
H           -2.76045477717725        5.92403538425058       15.77699418179508
H           -0.71387421097047        6.86115169406311       14.80755634555679
H           -1.11611234865747        8.57585246658326       10.57139723396963
H            5.96148437693937        5.93184462253762        5.82167603734383
H            6.84438238079361        3.99732209806208        4.58749663546402
