126
 energy: -25.205392933834 gnorm: 0.000909530707 xtb: 6.6.1 (8d0f1dd)
C            1.97687205418805        0.32398922203784       -1.49134593428739
C            3.36000467926878       -0.00817888058073       -0.90620084423878
C            3.52277495097325       -1.54068449209368       -0.88904559948253
C            4.45886029189020        0.58503640943410       -1.80719782087910
C            3.47988811492043        0.59296997174364        0.50340918801612
C            3.38918097709533        1.98648589000598        0.67209982233310
C            3.53078148558688        2.58868759429730        1.89879248275900
C            3.76371157732751        1.79238164883364        3.01774963842943
C            3.84908727504193        0.39981118914261        2.86913189998972
C            3.70490346705047       -0.19529166861421        1.61639892307940
C            4.12482457626962       -0.15739015921309        4.17126736140201
C            4.30530329821205       -1.47002387969446        4.60582240955671
C            4.56030846077787       -1.72513986147019        5.93989262632671
C            4.76599678646661       -3.17678036165907        6.39967374727077
C            3.48399034848179       -3.98258456730257        6.12244031565296
C            5.94470434999591       -3.79473321164241        5.62449464488959
C            5.08015488414852       -3.26342539080199        7.90566434364133
C            4.61660012023343       -0.64117373532986        6.83545852128915
C            4.44024375986864        0.65706090558197        6.42326394302469
C            4.20338002110542        0.91179611189719        5.07468723342154
N            3.99431386832651        2.12000399739615        4.37342125867998
C            4.06626246390586        3.43520086672834        4.94145909375737
C            3.13290853521177        4.40864850567701        4.60454475933717
C            3.18814240916012        5.65658738754170        5.17342265488718
C            4.15420848413541        5.97453574671306        6.13185431654166
C            4.23314555958728        7.29117886387681        6.79771649264363
N            5.43472107900192        7.69166026825143        7.15134964244565
C            5.51142165316000        8.92642570075661        7.68338076133137
C            6.78379079121806        9.42415226231579        8.08117413825426
C            7.92119850868872        8.61977671899338        7.96041307541393
N            8.86576957732049        7.94835812729899        7.86569914334638
C            6.89092127522776       10.70109712182274        8.58445396339088
C            5.77512928068495       11.51369999865343        8.71241459398099
C            4.52493802280540       11.06570873541396        8.34884825730443
C            3.41491540822537       11.90394862927782        8.49150676452186
N            2.49853527641778       12.60858353425039        8.61691887187548
C            4.36966270190222        9.74950747754258        7.82992305463792
N            3.13522827046781        9.31254894739149        7.51677468235846
C            3.06958861932520        8.08461875878086        7.05105653993387
C            1.72117180539998        7.53826818415902        6.77395295385830
C            1.29200478739817        6.34792780324708        7.36745228210358
C            0.14647682404359        5.72752601705012        6.93550997446666
C           -0.60331287390338        6.27630891640354        5.89765689304457
N           -1.59408461511146        5.47777539803810        5.22775400523901
C           -1.40171332653125        4.93599652345694        3.93968683882652
C           -0.37460573363014        5.12597650782250        3.02032779057855
C           -0.39946014572192        4.41731753035177        1.84539402883765
C           -1.43182512228574        3.50955739727766        1.54284823710683
C           -1.43124050583376        2.69127731675719        0.24337386002609
C           -1.11960863077900        1.22360236262808        0.58226891827010
C           -2.81146215331817        2.78626697652517       -0.43545770476917
C           -0.37496035175651        3.20673209580643       -0.75273046560086
C           -2.44109019104836        3.31438829567131        2.46821666070000
C           -2.43247996036432        4.02683193888630        3.66707855034819
C           -3.29665900276444        4.00421060086410        4.82542053442858
C           -4.45919381262583        3.29044238753261        5.11203101464298
C           -5.08341215224091        3.45335131998330        6.33449059205662
C           -6.36784292053512        2.66267264996748        6.62740116806179
C           -7.43801748370923        3.02651888527806        5.58146697467483
C           -6.06363655277437        1.15503485944672        6.55454182757324
C           -6.93064199573987        2.97812192554444        8.02645172989610
C           -4.51894396267339        4.34044654450338        7.27097066041360
C           -3.37267819534763        5.05012637033613        7.00685884432677
C           -2.75290922651858        4.88594612348851        5.77225520520062
C           -0.22913697759090        7.51119487050579        5.37135821172487
C            0.90907060466237        8.13999947930953        5.81089876030017
C            5.11115039712556        5.00643840221097        6.43239403457716
C            5.06877195973606        3.76321880830573        5.85016536834251
H            1.85700306642952       -0.11258298697125       -2.48241807883712
H            1.83620618886535        1.39929833474460       -1.58358687463200
H            1.18667182423194       -0.06873443869802       -0.85307226796027
H            3.43977630856459       -1.94925493778796       -1.89579653852067
H            2.75183425978364       -2.01063363415809       -0.27919454939016
H            4.49823986069838       -1.82726266250618       -0.49734926728950
H            4.41941564272972        0.15234570911622       -2.80638509435023
H            5.44609032648805        0.38590651631442       -1.39158398786603
H            4.34977349993729        1.66381133181537       -1.90812806678072
H            3.21572783595316        2.60200281186658       -0.19312876445799
H            3.48657789273572        3.65769752269025        2.00165944855153
H            3.78532566799912       -1.26277184580667        1.53897171102899
H            4.24429813155930       -2.27182038412341        3.89388895902458
H            3.24525881550296       -3.99280581280691        5.05989805005467
H            2.63570847586541       -3.54976743424094        6.65174881911652
H            3.59441192691422       -5.01606403688999        6.44939121488373
H            5.74945475847818       -3.81390407189180        4.55335314498846
H            6.12903316581858       -4.81912723278621        5.94668684318447
H            6.85597263096968       -3.22042311413123        5.78824956308407
H            4.25970470907923       -2.86596676772423        8.50214174166957
H            5.98686539140836       -2.71069065218997        8.14946200732834
H            5.23440348942504       -4.29864481723458        8.20881483825765
H            4.80253515667947       -0.82747012816039        7.87790037363770
H            4.46962874638826        1.47202423851648        7.12375298440311
H            2.34714377746550        4.16016050476965        3.91302683146119
H            2.47076974254684        6.40195465078525        4.88375695309494
H            7.86137462125795       11.06446596388345        8.87722666089198
H            5.87546222154350       12.51166742861575        9.10431255426464
H            1.90723119926345        5.89252142975154        8.12438751134180
H           -0.14552429920544        4.77354352126565        7.33885551560999
H            0.41941207376374        5.81523226717449        3.24464653323774
H            0.40068799615393        4.56243466029740        1.14217095476109
H           -1.85801580806694        0.81594478807431        1.27153717720633
H           -0.14050138200776        1.13667423759729        1.05286340065399
H           -1.12285101658900        0.60663664331717       -0.31559091142800
H           -3.59435753460407        2.35399577231794        0.18544003173127
H           -2.81465909197506        2.25333718129806       -1.38583723526966
H           -3.07288910976560        3.82564095026072       -0.63150600890867
H            0.63162395100709        3.09338526962069       -0.35298621367309
H           -0.53834579870865        4.25867523132904       -0.98492038420882
H           -0.42156623794922        2.64980248363919       -1.68812248105802
H           -3.22479537078330        2.60276103107457        2.28806923717500
H           -4.85751207418773        2.61878629030121        4.37467405372476
H           -7.11104805681772        2.77245282634136        4.57425012471541
H           -7.65056990394633        4.09485754191772        5.60441189127772
H           -8.36840607348588        2.49298760575572        5.77341099962964
H           -5.71051008585863        0.86945487586605        5.56470303578996
H           -6.95412930580945        0.56639513378826        6.77288017260662
H           -5.29370494687511        0.88268911580034        7.27571437302222
H           -7.17523773755637        4.03551220457580        8.12182223438059
H           -6.21632972936261        2.71474107021184        8.80577055271593
H           -7.84288318266044        2.41175304419843        8.21196133376146
H           -4.99576655648446        4.47339305324491        8.22536644422682
H           -2.95106746346570        5.72888656825664        7.72671459707839
H           -0.81950030480427        7.93760039191365        4.57893073424118
H            1.22478592797340        9.07258964200898        5.37558221174305
H            5.89160711075013        5.25756727972398        7.13031360018802
H            5.82258094661140        3.03092697099936        6.08015056922051
