84
 energy: -19.396146671761 gnorm: 0.000721569466 xtb: 6.6.1 (8d0f1dd)
C            0.90720920863406        0.07492906062919        0.02018075792811
C           -0.31281869586367        0.04253371869559       -0.02091557682986
C           -1.72091713177030        0.00663197826112       -0.03926811344572
C           -2.38988067888980       -1.22652794303188       -0.04853334167819
C           -1.65437240453782       -2.42803717644499       -0.06509829618644
C           -1.01617756698956       -3.46890668741945       -0.09165364607642
C           -0.28028298282524       -4.67102690529062       -0.12545183208467
C            0.99188193122036       -4.71055306727397       -0.68626336776442
C            1.71099263515699       -5.88658888412332       -0.71654502771971
C            1.17004848105096       -7.04133269481554       -0.18871079991406
C           -0.09241077554155       -7.01894550355489        0.36840076658914
C           -0.81272255934398       -5.84367987773523        0.39970449974799
C           -3.79213481527988       -1.26202468372940       -0.04347596689221
C           -4.47041767919437       -2.49701555276754       -0.04811563639592
C           -5.08527625658956       -3.55214799876612       -0.05707550894395
C           -5.81556760024086       -4.75809642465484       -0.06766048986014
C           -5.35813736123711       -5.87377920266789        0.62544780544093
C           -6.07638654295943       -7.05072826325182        0.61631217198158
C           -7.26319457394872       -7.13073101282804       -0.08352107612996
C           -7.72973988600606       -6.03272157517792       -0.77736823115086
C           -7.01119988118227       -4.85596719021268       -0.77163232383004
C           -4.52416749770790       -0.06509743766015       -0.03293932630337
C           -5.93201622668932       -0.11021421272720       -0.00984273498258
C           -7.14980327219005       -0.19045114697353        0.03277059236612
C           -8.55190473711038       -0.32136602385653        0.09763250493996
C           -9.13844146132266       -1.58035389912233        0.17081512628878
C          -10.50888798492469       -1.71505459588399        0.23475921924298
C          -11.31432564477688       -0.59423505449262        0.22819865517476
C          -10.74691099393017        0.66208565180358        0.15876347178231
C           -9.37640233108797        0.79859848308448        0.09415691170846
C           -3.85538483326598        1.16820496868717       -0.03993825602183
C           -4.59447682654605        2.36752452900343       -0.04707351605283
C           -5.24415220204437        3.40148736606758       -0.06340455093009
C           -6.00547113419363        4.58807603444111       -0.08431863111145
C           -7.28051491325027        4.60267433441606       -0.63980953015454
C           -8.02673045679638        5.76197201977274       -0.65806931263917
C           -7.51076145155251        6.92444930972805       -0.12240448587251
C           -6.24616595131533        6.92660269321614        0.43028419726044
C           -5.49850200431736        5.76824490284195        0.44903915841184
C           -2.45284670091838        1.20383189881450       -0.04133423506468
C           -1.77588796432133        2.43942627338022       -0.04514191923556
C           -1.17479887410428        3.50237471998698       -0.06175943040038
C           -0.46920900591320        4.72287576477559       -0.08359864798299
C           -0.96406813041606        5.84236395079726        0.57719391402131
C           -0.27270131183979        7.03506658863306        0.55468481985704
C            0.92369812674802        7.12764694155027       -0.12725559066004
C            1.42769795839130        6.02580668652150       -0.78843163066820
C            0.73691527949471        4.83261977502795       -0.76797655642591
C            2.31476038196619        0.11728116313096        0.08482248757456
C            2.98886441117553        1.33374457777080        0.08490852664853
C            4.36531431339163        1.37418709488639        0.15274744057100
C            5.08890096246748        0.20092688670448        0.22241915632918
C            4.43389378233566       -1.01390042524752        0.22495895959925
C            3.05754505126417       -1.05626640664383        0.15708786797493
H            1.40581113880392       -3.80825092577871       -1.10277995444758
H            2.69588088306519       -5.90425019540597       -1.15399079275403
H            1.73269150977327       -7.96033438043120       -0.21269443784526
H           -0.51627443520267       -7.92100131738654        0.77862068694366
H           -1.79929143756440       -5.82056493607802        0.83017078717325
H           -4.43260040789576       -5.80484899154741        1.17114132617004
H           -5.71079439854275       -7.90870035341967        1.15664508954153
H           -7.82475121728458       -8.05070763749638       -0.08905617350819
H           -8.65538382627207       -6.09514605153342       -1.32596211573218
H           -7.36385513437486       -4.00009434861982       -1.32153631306235
H           -8.50393750562827       -2.45006401216425        0.17860962870615
H          -10.95097522197365       -2.69647189360251        0.29025125364288
H          -12.38575980469425       -0.69999064587720        0.27857323222288
H          -11.37571511910686        1.53749260576586        0.15575719073828
H           -8.92759292934600        1.77583607477814        0.04253388831137
H           -7.67555757407340        3.69381136841874       -1.06045212120539
H           -9.01341450622626        5.76028876794918       -1.09179067820126
H           -8.09475564105148        7.83024552451866       -0.13653009904770
H           -5.84213191793058        7.83470437559668        0.84712208537568
H           -4.51031054089928        5.76443221419510        0.87628443042809
H           -1.89763166832977        5.76414228701494        1.10796489029910
H           -0.66702782473716        7.89568387667735        1.07032518452867
H            1.46382592051452        8.06022771812203       -0.14407006936474
H            2.36092119366411        6.09819395536380       -1.32298673833412
H            1.12073313408053        3.97199890977436       -1.28901401271520
H            2.41812463251039        2.24525189201158        0.03428721765415
H            4.87634621686244        2.32311313462911        0.15262804118185
H            6.16485709898805        0.23337886787943        0.27664226854286
H            4.99831511153897       -1.93037209822113        0.28116286916756
H            2.54020105371618       -2.00034131232809        0.16250201560067
