109
 energy: -21.125195791226 gnorm: 0.000747238832 xtb: 6.6.1 (8d0f1dd)
C            1.23117263281667       -0.51250360349298        0.84125065801501
C            2.73859043638156       -0.38315118920911        0.55514661151056
C            3.10893684147487        1.11243045190857        0.56931572532216
C            3.53888082096126       -1.09084563228827        1.66419255417297
C            3.05556421179569       -1.03911545901322       -0.79776805142381
C            3.59553310761464       -0.30985591342719       -1.87492217743292
C            3.87210909266222       -0.89343414424829       -3.08695126120441
C            3.61242888764964       -2.25082199344778       -3.25345866050500
C            3.07181268349750       -2.99553930484356       -2.19464729377904
C            2.79620141250852       -2.38552832014908       -0.97063647615993
C            2.89379707082060       -4.34723299855297       -2.66907902985774
C            2.41126633513552       -5.50177068716010       -2.05266613864540
C            2.36057211218743       -6.68927846046588       -2.75768114355461
C            1.83604228652624       -7.95243696276832       -2.05728803190424
C            2.72139985943809       -8.26025267833605       -0.83542761514209
C            0.38538911899602       -7.71503012008987       -1.59875645700839
C            1.85559276969241       -9.17763828681938       -2.99129259029126
C            2.80002824639009       -6.70168525319898       -4.09590076432732
C            3.27676977647122       -5.57446971304185       -4.71922497779078
C            3.32494515621424       -4.38132437555520       -4.00363168678208
N            3.77073696597023       -3.09585530818812       -4.37010926262686
C            4.25444457734395       -2.70717758094988       -5.66659316042659
C            5.49587943026542       -2.09479933039303       -5.80986049608312
C            5.94317817792293       -1.70774470402097       -7.04949487497611
C            5.16760043670563       -1.91786072488647       -8.18323262103492
N            5.61416025198366       -1.44447728669430       -9.46515596940859
C            6.73516603631364       -1.90885306914578      -10.18410833784094
C            7.70754486858771       -2.84802999566410       -9.85544404261423
C            8.66200795965291       -3.16911356416152      -10.78931484797338
C            8.68881849186073       -2.57737094818211      -12.06677309580620
C            9.73545592422302       -2.96068142419055      -13.12411867210745
C            9.01874377061681       -3.55179891347660      -14.35243047932380
C           10.52585963496182       -1.70595575459698      -13.53875474619771
C           10.73155082147404       -4.00906644048910      -12.59270029466468
C            7.72156907951501       -1.64355525899479      -12.38656911439710
C            6.74282917923220       -1.30849784017162      -11.45153003208083
C            5.59622719717850       -0.43502594094770      -11.51980544120224
C            5.09834228125541        0.38420046695627      -12.53266726841129
C            3.93579318283188        1.10326737061132      -12.32812326103523
C            3.39108897681629        1.98427114137153      -13.46247251373716
C            4.44644474981461        3.04031873793210      -13.83957716187318
C            3.08137977106361        1.10007269377077      -14.68444052977287
C            2.09848147894543        2.71523583588931      -13.05144062668870
C            3.27921483940194        0.99099439507978      -11.08784632871744
C            3.75667010201502        0.19035994070817      -10.08006451722274
C            4.92330955693542       -0.53669634048489      -10.29440702498644
C            3.92102764423544       -2.56251276119992       -8.05560146151940
C            3.07207962492481       -2.82805243888689       -9.24419047880599
N            1.93140306951151       -2.15016138847227       -9.34992249625483
C            1.26832774978579       -2.39618849136240      -10.45525799356579
C            1.69276096346833       -3.27569299205493      -11.42093547485957
N            2.79488193732082       -3.98508731775455      -11.32872001900235
C            3.48768966958251       -3.76029666515767      -10.21856604698985
C            4.66296815794057       -4.50309863528962       -9.99984923153762
N            5.62930441944432       -5.11940336918565       -9.80228075225687
C            3.48214398800919       -2.93358661840385       -6.79337335801939
H            0.97227433412264       -0.04199427544562        1.78941410652730
H            0.92593375716594       -1.55668435385192        0.89364194883853
H            0.64788065688203       -0.03280281901017        0.05579926732375
H            2.88191877656782        1.55720192013333        1.53795499788749
H            2.54706006304019        1.66340665154601       -0.18430675314681
H            4.17302912087448        1.25503238349548        0.38327285985838
H            3.35364726356860       -0.62936024674769        2.63380235645966
H            4.60820232346439       -1.03472144416068        1.46256686304288
H            3.26732839346013       -2.14284663460677        1.73971730344999
H            3.79828590792447        0.73899420000208       -1.75289834242542
H            4.27528876828336       -0.32502261765241       -3.90592453768396
H            2.37757813011884       -2.97223803994158       -0.17428478008710
H            2.08709872222752       -5.45390492093078       -1.02978841584691
H            2.69897980160708       -7.44467864858673       -0.11395177072495
H            3.75715646341695       -8.41002280869502       -1.13877585367399
H            2.38464550164284       -9.16332622082307       -0.32706183932727
H            0.32339775256801       -6.88992582512453       -0.89055985675851
H           -0.01998252745191       -8.60191972392250       -1.11241964202910
H           -0.25243747905635       -7.47494959767746       -2.44890069596717
H            2.86834432669556       -9.39973028490893       -3.32623035881720
H            1.22762899655538       -9.01428716856490       -3.86656270669173
H            1.47863388631125      -10.06123010345327       -2.47673412413900
H            2.76639523610889       -7.62030274895333       -4.65363349975273
H            3.61756470108265       -5.59744885111479       -5.73910328985445
H            6.09706887082987       -1.92941162863533       -4.93296162771757
H            6.89529189584865       -1.21856719636946       -7.15937211679843
H            7.66723428879823       -3.33925103245054       -8.89944973320137
H            9.39767354600654       -3.91092063855753      -10.53533549036823
H            8.34220406501310       -2.82714443172350      -14.80330366836752
H            8.43210166465359       -4.42576969938910      -14.07088504006230
H            9.73583608991994       -3.85674895684856      -15.11406465261790
H            9.87230243567316       -0.95124702728061      -13.97400096811143
H           11.28794052294209       -1.95177827752887      -14.27781796339536
H           11.02248247821443       -1.26161316699939      -12.67669395496695
H           10.21977244019766       -4.92868854214868      -12.31072094079712
H           11.27298343957162       -3.63210230921168      -11.72558406774106
H           11.46733139375554       -4.26371203473705      -13.35518019246772
H            7.70002447254677       -1.18259829618780      -13.35646666008943
H            5.62256334017046        0.43866381083486      -13.46852586736478
H            5.36604337068436        2.57444733994413      -14.19090558067761
H            4.69379750746272        3.66130846908357      -12.97906377384532
H            4.07996433771083        3.69222574722338      -14.63209555157620
H            3.97831272647754        0.60268088098200      -15.05086036114058
H            2.67153676463412        1.69298728579827      -15.50162727005968
H            2.35427221717273        0.33034141785445      -14.42726733160128
H            2.27072763083285        3.36466340855448      -12.19363665606369
H            1.31030138057548        2.00669158150125      -12.79853927111009
H            1.73103831732331        3.33786876714737      -13.86683655766327
H            2.36963589205258        1.53891236262784      -10.91928615621798
H            3.23613460615238        0.09171099223468       -9.14405363816191
H            0.34322477964545       -1.85774111994298      -10.59507056852721
H            1.09780741679073       -3.42019351334519      -12.31005018209172
H            2.52060140480044       -3.40086684814664       -6.68766855285324
