111
 energy: -21.251923235179 gnorm: 0.000586797475 xtb: 6.6.1 (8d0f1dd)
C            0.86429527907286       -0.42305223406100       -1.19367374115573
C            2.39810023910173       -0.54884369313366       -1.12949788321097
C            2.91111776686855       -1.27694917883880       -2.38503177849203
C            2.99829049692050        0.87013891971126       -1.10898811404455
C            2.79014374663380       -1.35473796018246        0.11858139053295
C            3.63751542527304       -0.83057447450693        1.11311511153509
C            3.97689205870501       -1.54553691760369        2.23552095425683
C            3.46176727458755       -2.82942395605925        2.40055636942295
C            2.63449143531920       -3.37666644019812        1.40828923066128
C            2.30108131095678       -2.63762947238312        0.27336351313359
C            2.28263009015749       -4.71077506314952        1.82866048877189
C            1.51240881464991       -5.70636279466695        1.22767611781121
C            1.33849329525003       -6.92076549806965        1.86333949428062
C            0.50810069582310       -8.01512941663535        1.17509367647799
C           -0.92762536631878       -7.50356602152924        0.95837887886825
C            1.14690018027327       -8.35821527325010       -0.18370180262605
C            0.44408128464507       -9.30328881160432        2.01817831815606
C            1.93530779657841       -7.11485559330017        3.12341702418777
C            2.69538657122933       -6.14497610858380        3.72938260419622
C            2.88968911005399       -4.93047884565026        3.07411912753974
N            3.62203781030631       -3.77824899185821        3.43291987535504
C            4.38841613755326       -3.61017947800961        4.63552470922138
C            4.36143136231332       -2.41087494645869        5.34243952746441
C            5.07713390508352       -2.26850151669090        6.50524459609493
C            5.83033341984456       -3.32170353926401        7.01293299475055
N            6.51508098853413       -3.17544611543782        8.26947570798006
C            6.29421705453134       -3.97464928089120        9.41165818772646
C            5.29508081548893       -4.90120038049216        9.69202524896718
C            5.37297137848402       -5.62648942997139       10.85522716331678
C            6.43280044915897       -5.46509334785218       11.76769769781644
C            6.53850922879806       -6.30255898005232       13.05075009119933
C            7.81097149613131       -7.16681165274698       12.98316512636300
C            6.61124953740711       -5.36402641904098       14.26970008653736
C            5.32452673142240       -7.23451606697108       13.22973164282692
C            7.42565715095416       -4.54736967934463       11.47985395055291
C            7.35868832933775       -3.79707750153754       10.30666937009784
C            8.27622236906434       -2.86209493411236        9.69939096977491
C            9.55509085483339       -2.44307642431100       10.06317588540810
C           10.28763800354922       -1.64463844523255        9.20509769531164
C           11.73528238550901       -1.28893394468762        9.57455289204235
C           11.74654123260332       -0.49159736144413       10.89091324769062
C           12.54173472544467       -2.59088690075212        9.74717453326197
C           12.41494523641189       -0.44090980433385        8.48263297077487
C            9.70308008852063       -1.23935315362323        7.98987125894832
C            8.44499648306957       -1.64349395962072        7.61489944007134
C            7.72711618403502       -2.47760498526053        8.46702634250808
C            5.87398064047228       -4.53714392232583        6.30362047769340
C            6.60901924868522       -5.72509074775337        6.80900297995873
O            6.05281956555415       -6.80782460375745        6.85103406758156
C            8.01142798642221       -5.58538738709166        7.26214963244606
C            8.91196670154610       -4.72952473790942        6.65195479654992
C           10.18833479461224       -4.63350244295453        7.14890819955101
N           10.64421619384436       -5.30842995708153        8.19229422959167
C            9.77883091537940       -6.13733829851254        8.75468454850302
C            8.48352132502910       -6.31648115615027        8.33561482944114
C            5.15211893248877       -4.65546388749516        5.12908237354174
H            0.55697351795595        0.16431628760858       -2.05856586722688
H            0.48082486138236        0.06730390300646       -0.29930327361090
H            0.38831896341228       -1.39969160239014       -1.26973004982919
H            2.66110482482075       -0.72071991456550       -3.28812884773879
H            2.47277344608757       -2.27017262874589       -2.47306810164838
H            3.99410036824239       -1.39139125323604       -2.34766825006854
H            2.69807843606845        1.42913921679768       -1.99504146739640
H            4.08727575513138        0.83637070625328       -1.09573173522663
H            2.65706288547418        1.42748007040829       -0.23698719738018
H            4.03665113330736        0.16106225145736        0.99643883985237
H            4.64106015098277       -1.13626533858032        2.97511003062410
H            1.66164491299856       -3.07672056244469       -0.46965489870356
H            1.06623588531509       -5.51774618619412        0.26897064678596
H           -0.94143553591378       -6.62104360085746        0.32019198940585
H           -1.38827296352660       -7.23637569593452        1.90902876711402
H           -1.54617810355287       -8.26616994719905        0.48581159046972
H            1.16595605544032       -7.49179808656247       -0.84337297657704
H            0.59079408899476       -9.14804600688442       -0.68804955049598
H            2.17302457616872       -8.69994927884132       -0.05078229454878
H           -0.02465802725970       -9.11792244370630        2.98415209481405
H            1.44029674430305       -9.71093013651601        2.18771242665479
H           -0.14216916170429      -10.06860540884930        1.50998977533740
H            1.79764897902899       -8.05126658548352        3.63371414865495
H            3.13178557400021       -6.30798390588704        4.69831837241472
H            3.74447095540371       -1.60680981003822        4.98218821935185
H            5.04396726757976       -1.34621281122765        7.05869678662000
H            4.50164298367932       -5.05611418796033        8.98250630793367
H            4.60343043367040       -6.34861139299744       11.06098856126966
H            8.70479763441232       -6.54926077849580       12.90499629651509
H            7.78291927690632       -7.82456377644309       12.11481754438205
H            7.90983168995144       -7.78658812594736       13.87392782099638
H            7.48843052463523       -4.72017028943569       14.22391593269632
H            6.66528795906923       -5.93322708588980       15.19735740070586
H            5.72942903289702       -4.72558964086737       14.31649986173764
H            5.25087221610164       -7.94620516437208       12.40798814051005
H            4.39707290620021       -6.66471095517788       13.28025902720922
H            5.41020591739278       -7.80734214111458       14.15284388999303
H            8.26452192888949       -4.41794754036936       12.13805822046427
H            9.97611263881538       -2.78833720667563       10.98900987206206
H           11.31614548593126       -1.06963320573825       11.70758010646567
H           11.16841120641636        0.42644867572187       10.78952554310432
H           12.76346107206245       -0.22089516702594       11.17394756230538
H           12.14422233895399       -3.19961402954095       10.55794114892934
H           13.58634406823159       -2.37767128052397        9.97199794978586
H           12.50604715794708       -3.18872408879235        8.83691127171565
H           11.88939523514738        0.50172825258372        8.33292441077959
H           12.44625381199081       -0.97621529253818        7.53396880583878
H           13.44188041733228       -0.20471738217455        8.76064164525420
H           10.26194962079894       -0.61219371263706        7.31869021820886
H            8.02120650460370       -1.36003880101179        6.66792401282693
H            8.59917811528776       -4.14163602214748        5.80636684654575
H           10.88446048048842       -3.95623633456097        6.67805692553982
H           10.13799376851870       -6.69824720695303        9.60396388306536
H            7.82068249624378       -7.00116008936429        8.83643059035904
H            5.19122031883679       -5.58468404607277        4.59148469789029
