124
 energy: -24.407039032845 gnorm: 0.000409137399 xtb: 6.6.1 (8d0f1dd)
C            1.03769830978472       -0.11377573517531       -0.31173924931121
C            2.53978522635075       -0.24118388360993        0.00199489964431
C            2.86674435710786       -1.73243144298509        0.21126935158710
C            3.36499792441377        0.27361484881843       -1.19175297229941
C            2.87346301292366        0.59538599452310        1.24672989024474
C            2.62810688625918        1.98047149946793        1.22710547778932
C            2.91464919638212        2.79071737056203        2.29784040110167
C            3.46250133184881        2.22024521534468        3.44344769025502
C            3.72075132648106        0.84200490505978        3.48175949688831
C            3.42371052632807        0.03308395519197        2.38432195364409
C            4.32157257594000        0.55484899712595        4.76300394873349
C            4.78465072966845       -0.63038835864342        5.33373612828507
C            5.33377663254444       -0.61556380883840        6.60200378095466
C            5.84869000072527       -1.92992335724679        7.20914039186494
C            4.69223314816359       -2.94395470237389        7.28583280388741
C            6.97259091016735       -2.49275290822889        6.31961507525221
C            6.40955106599562       -1.72622961372947        8.62968503732572
C            5.40897472745193        0.60928151250342        7.29231743812475
C            4.96003832487190        1.78634451180082        6.74395332333646
C            4.41442435518499        1.76720759646375        5.46329849662708
N            3.88545579403701        2.79970484057093        4.65918935443370
C            3.86789064206903        4.20399848093479        4.96103292223148
C            2.71570622063952        4.95529596565114        4.75749765505598
C            2.71805019047008        6.31383490810624        4.97159801601028
C            3.87230245614601        6.96631872184463        5.39824579525465
C            3.88114865456740        8.36514552072135        5.56856804722394
C            3.87956015079562        9.58452643651472        5.65315476662404
C            3.86761348645706       10.99397916920484        5.68921619849105
C            2.66496117275279       11.69413646371526        5.69749429878337
C            2.65060113369847       13.07157483549385        5.70668060044845
C            3.83848205011046       13.79651061456996        5.70725568637517
C            3.82289614847249       15.20634807980541        5.70451934558923
C            3.80688385749610       16.42851054505287        5.69687273373074
C            3.78646292337506       17.83747300659213        5.69044585622258
C            4.94597285499571       18.56721826863589        5.43910057990062
C            4.92668356711219       19.94271677119791        5.44121791502132
C            3.74751254083394       20.63429639218228        5.69550272656542
N            3.73234420969778       22.07027797983532        5.72198753413276
C            3.18383631893007       22.87415840670056        6.74452489008547
C            2.54506995825788       22.53749823385539        7.93486951563361
C            2.12154414496565       23.54315901421586        8.76917941979769
C            2.31603047222478       24.90307345193591        8.46144633580811
C            1.84736806924977       26.02718123876162        9.39820076377621
C            3.06768330643623       26.84634285005802        9.85703046210530
C            0.86303198392022       26.94099052570105        8.64491559066949
C            1.13533855381461       25.47432032759007       10.64788144356760
C            2.95885912209182       25.23215265178162        7.28284123160551
C            3.39517641807004       24.22335292429635        6.42416719135308
C            4.09594586450169       24.26023818189681        5.16242520137514
C            4.55484180855798       25.31812494357049        4.37795598047351
C            5.20295926499843       25.06011469863878        3.18474969034651
C            5.70573767187512       26.23849151766398        2.33634406821836
C            4.51409854327739       27.13587865440712        1.95407629038559
C            6.72615164880994       27.05260920632114        3.15307360094644
C            6.38983261479627       25.76304132923403        1.04015940074510
C            5.38161140208673       23.72118007744617        2.78786398140461
C            4.93739440419420       22.66754951975792        3.54941473772511
C            4.29167877414543       22.93239570092099        4.75410902635314
C            2.58701606681106       19.90909680340220        5.94198732628218
C            2.60607400690433       18.53368255906385        5.93953193619283
C            5.04123582348652       13.09637903786749        5.70313127333503
C            5.05562540124520       11.71880011379139        5.69404372961703
C            5.01978844573174        6.20794395438831        5.61876551506910
C            5.01720225505475        4.84877711438242        5.40507052557285
H            0.76860657122397       -0.71464849344626       -1.18023125738479
H            0.76234845492043        0.91847871784256       -0.52386298046649
H            0.43818840510129       -0.45338404735138        0.53256482117691
H            2.62020097693777       -2.31074391965520       -0.67905210352954
H            2.29548681825426       -2.14626886406552        1.04193464912736
H            3.92774860360354       -1.87683311304541        0.41380946022858
H            3.16449518873220       -0.31403632517980       -2.08737253742512
H            4.43169800453387        0.20971533536914       -0.97791960401976
H            3.13098630099292        1.31339514209497       -1.41658507829447
H            2.20667097403349        2.41996061023017        0.33985855100107
H            2.73714194296907        3.85051084555823        2.26106341669133
H            3.63745478894542       -1.01725028668795        2.44272237530929
H            4.71143186424318       -1.54530066517589        4.77573359802231
H            4.29709876372308       -3.17091933410182        6.29647844409097
H            3.87531149685514       -2.55089028213085        7.89056869678566
H            5.02383482097806       -3.88038486050289        7.73406336087470
H            6.61245604748839       -2.70627592273044        5.31397888043740
H            7.37185419677596       -3.41830587349355        6.73394256044188
H            7.79173605358039       -1.77875471915391        6.23694242295476
H            5.64367627628401       -1.34112018855547        9.30250630642169
H            7.24921078470162       -1.03161729735721        8.62460553731470
H            6.76630091516175       -2.66963103898744        9.04283883636494
H            5.83025760976187        0.63175627365217        8.28139538073547
H            5.01587766109607        2.71399874149823        7.28507517119820
H            1.82104626144772        4.45567971330410        4.42883779750052
H            1.82617351871166        6.89239115460944        4.80038615126009
H            1.74090535640451       11.14136531170368        5.68982812144295
H            1.71515285651189       13.60486459487672        5.70886111947244
H            5.86332319824845       18.03697969598246        5.24746512194244
H            5.82910115175541       20.50184453341440        5.26547981130761
H            2.40194197767111       21.50248990890946        8.18877749007349
H            1.62872776385037       23.27520685144089        9.68654682672438
H            3.57671866328299       27.30629853594278        9.01091979751107
H            3.78579933718129       26.20992040667928       10.37367385277933
H            2.76942810917894       27.64206722748012       10.53936242868494
H            1.33550403853296       27.40658638890841        7.78094810094517
H            0.49638864784559       27.73710467748521        9.29261350576133
H            0.00408948525958       26.37162520115009        8.29044070182234
H            1.80193194325951       24.83967918975704       11.23134654144796
H            0.25482288559069       24.89394226613686       10.37316470465069
H            0.80526246781341       26.28655738280508       11.29536460382085
H            3.13293077598503       26.25853235704349        7.01820813430220
H            4.39812839554713       26.32659275466712        4.71295784544677
H            4.02887447609140       27.54876146048285        2.83757293520354
H            3.76865470322909       26.56881463732337        1.39699164871560
H            4.83787363973606       27.97016158270486        1.33206779899531
H            6.27560688968551       27.45926730880306        4.05761916548058
H            7.11529683849308       27.88741418623859        2.57049241572329
H            7.56755402322387       26.42715532846246        3.45051917312580
H            5.69955262336211       25.19369075143006        0.41812659065917
H            7.25601501950346       25.13913523497900        1.25929852822150
H            6.73726938631961       26.61290193967282        0.45280590962092
H            5.87991743582264       23.50876036006378        1.85897947368224
H            5.07059588995827       21.64976284532093        3.22894799845876
H            1.67004364893119       20.44217344591181        6.12343935032100
H            1.70422887706139       17.97747292231831        6.13121628770580
H            5.96529799347081       13.64916880287286        5.70217092798078
H            5.99100270012388       11.18546392218221        5.68495490898500
H            5.91730154189736        6.70478838047516        5.94585456798360
H            5.91329299125814        4.27111566950998        5.55059822968322
