74
 energy: -15.184238568935 gnorm: 0.000871888791 xtb: 6.6.1 (8d0f1dd)
C            0.89235411615937       -0.63901694408707       -0.35674916214580
C            2.37005083056854       -0.24107349303530       -0.19005148010888
C            3.24377248176109       -1.08023576121225       -1.14081220481036
C            2.52175314388197        1.24251044539832       -0.57735376399232
C            2.80249973047282       -0.50146843129795        1.26128626293316
C            3.23948314691361        0.53383751467458        2.10823054840434
C            3.62380872192630        0.30224129398374        3.40623222252749
C            3.57568903243026       -0.99784084971493        3.90096812964065
C            3.15099706252758       -2.04452262756748        3.07013423607899
C            2.76202584582039       -1.79167184634537        1.75547919454961
C            3.23792267194983       -3.26433447985314        3.83786734192994
C            2.95112323726283       -4.59086005792580        3.51978066040570
C            3.12890629664456       -5.58033288956740        4.46811540023668
C            2.81240588428854       -7.03759979209681        4.09692830835903
C            1.33037485249962       -7.14962210741883        3.69463880026216
C            3.70346125979548       -7.46560076648598        2.91626281427443
C            3.07024153193666       -7.99928158110839        5.27271076687632
C            3.59582011485725       -5.21688849559164        5.74504534024177
C            3.88562700734579       -3.91502271686037        6.07407348946159
C            3.71373804199371       -2.92349100803579        5.11251652367407
N            3.92206117525148       -1.52835982977483        5.16223138246884
C            4.43047842856378       -0.77813863506607        6.27618786216791
C            3.79419833565271        0.38607577432573        6.69174476018447
C            4.29826063153004        1.12546570726438        7.73552384303661
C            5.45522933760636        0.72576327521647        8.39912337400824
C            5.97712260934760        1.49926415027806        9.45392501901846
C            6.41749722572772        2.19720762180437       10.35555496043583
C            6.91650974435254        3.02666620601820       11.37790633612411
C            6.24053972913849        4.18623962074056       11.74470673497741
C            6.72784129294522        5.00281716281199       12.73753791251532
C            7.91363924364263        4.69650973829763       13.40921189418573
C            8.38336645255303        5.59870352731595       14.44850864338388
C            9.48045104665939        5.48110798917631       15.22992635792847
C           10.37873155257617        4.41556668658871       15.15392564636023
N           11.09421798184135        3.50511577817141       15.04428164766805
C            9.72916129456339        6.48469213541969       16.16966770654659
N            9.90941244179821        7.33490238063560       16.94310694114455
C            8.58488543722057        3.52967973457105       13.03602832784956
C            8.09794286534158        2.71454442926460       12.04297224249010
C            6.08532300508146       -0.44533672004162        7.98614323614070
C            5.58076605733384       -1.18568815884491        6.94256752762098
H            0.55049560527685       -0.45298204657307       -1.37433518867862
H            0.26093031161414       -0.06613467218634        0.32154795697424
H            0.74067761932225       -1.69576396209605       -0.14184552232132
H            2.97560812053111       -0.89664303566653       -2.18070475662961
H            3.12716611643566       -2.14612811108202       -0.95127377157077
H            4.29692342314799       -0.83126970967366       -1.01532217264973
H            2.21814897456234        1.40399466574985       -1.61125412217644
H            3.55715108565145        1.56841716096873       -0.48382516591712
H            1.89909121179875        1.87885090765686        0.05057085448629
H            3.27915026202863        1.54068965704670        1.73342329388508
H            3.96920682612446        1.10056391004630        4.03803093614227
H            2.43587341825742       -2.60790104182225        1.13842645284900
H            2.59379924611560       -4.82898534808332        2.53538908560256
H            1.10605421902189       -6.52781249727859        2.82930266312873
H            0.68473345034177       -6.83050711348894        4.51205813722164
H            1.07158617597909       -8.17726851378488        3.44176226887100
H            3.52038784942690       -6.84934767467224        2.03734801253638
H            3.51444574580594       -8.50254424390209        2.64065379995724
H            4.75728087027392       -7.37239177828095        3.17634158697749
H            2.44518872244931       -7.74904139556864        6.12913665638026
H            4.11399494162989       -7.96890952670156        5.58328560456569
H            2.84198606145306       -9.02607282952335        4.98846328981512
H            3.73171995796235       -5.97735829039903        6.49276115268564
H            4.23247400561063       -3.65001423768856        7.05661898747493
H            2.89431194168417        0.69377299637683        6.18859313669186
H            3.80300522303974        2.02790125701778        8.05087351223856
H            5.32565179028943        4.43745442145677       11.23561818659090
H            6.19103068266539        5.89642092449283       13.00663260713378
H            7.77566177275171        6.47211289214155       14.61472015501760
H            9.49820808524721        3.25775433319725       13.53076786934786
H            8.62835788346285        1.81913726617314       11.76625583970447
H            6.98150606597773       -0.76070606939635        8.49249695587948
H            6.08241143428481       -2.07875227452718        6.61352591271097
