70
 energy: -13.853114815176 gnorm: 0.000430648877 xtb: 6.6.1 (8d0f1dd)
C            1.09523574828578       -0.43330117895216        0.57481359761936
C            2.55125485935273       -0.18820914373740        0.13942017811635
C            3.45719825366914       -1.18854246159367        0.88322334473509
C            2.69124781683302       -0.44198997478144       -1.37305660473534
C            2.93461308434226        1.26680984341561        0.44990077211489
C            2.23118851484596        2.31099731480773       -0.17702737147610
C            2.52291658474685        3.63288195680050        0.05265331199263
C            3.54551245267659        3.94953983245552        0.94235647116740
C            4.26222319412614        2.92284879699325        1.57430085449454
C            3.95376800175231        1.58514276558193        1.32879673915302
C            5.26497189093190        3.54802696468637        2.40373943072710
C            6.24413434455093        3.01919218559321        3.24335507824766
C            7.08659936646070        3.86659233139769        3.93772051210969
C            8.16347554184692        3.26415080118365        4.85331718719449
C            7.49011003674235        2.38260521904482        5.92168266488924
C            9.12565749056581        2.40955607766425        4.00805570936464
C            8.98270666853129        4.35369658886583        5.57127988641078
C            6.93133512187521        5.25616605607389        3.77592225361655
C            5.97335965092257        5.79347537697283        2.95071676369763
C            5.13064942926725        4.93573572403727        2.24925752329705
N            4.07295376761519        5.19352776161725        1.35066877687476
C            3.63385403510885        6.48143029634082        0.89212278503616
C            2.28135527897472        6.80366816162695        0.87965395498399
C            1.85566483477941        8.02240997935279        0.40577155362368
C            2.76841430249947        8.96016744693161       -0.07014654706197
C            2.32853654734234       10.20148863112372       -0.57065209541113
C            1.93459935004962       11.26764045827931       -1.01956216188121
C            1.47184746136915       12.48981519584490       -1.54672086312716
C            0.75023083876484       12.52258145149440       -2.73706103564930
C            0.29396797603917       13.71388831646852       -3.25333922735103
C            0.54696136058009       14.91125495702395       -2.59144221865986
C            0.07132997127238       16.18791078448578       -3.11343978799034
O            0.24970825066726       17.25629036603532       -2.59317943897922
C            1.26734429978314       14.88235063317074       -1.40546368402564
C            1.72339731180367       13.69085977598790       -0.88948287094324
C            4.12296358650038        8.63744517435400       -0.04897491596104
C            4.54879094007466        7.41847610142539        0.42511520475830
H            0.79829707743516       -1.46357850561738        0.38096295691179
H            0.40683925212450        0.21861117749790        0.03893202790270
H            0.97542281687655       -0.24224105214514        1.64080217238772
H            3.17727526415403       -2.21438008823594        0.64515198190067
H            3.37316040853580       -1.06677232824757        1.96266836667607
H            4.50099108827839       -1.05731428941393        0.59949021168901
H            2.45070083285216       -1.47592113721359       -1.61866985258198
H            3.71076381870022       -0.24504210487246       -1.70314054886834
H            2.02399762132995        0.19910654926468       -1.94712453291276
H            1.43837193405505        2.06450437524652       -0.86140674662373
H            1.98691790593091        4.41929499128673       -0.44740306930836
H            4.52147268685795        0.82328559622901        1.82812734287228
H            6.33282039836570        1.95317412035029        3.33963532958836
H            6.94406589700062        1.55654267044838        5.46847129738013
H            6.78474548989305        2.96589451084393        6.51273011799771
H            8.22986112651145        1.95888688093388        6.60026529569173
H            8.60051820036161        1.59178128537215        3.51647494892878
H            9.91053858315656        1.97708414661802        4.62784362657510
H            9.59977416250045        3.01445535331812        3.23574652683924
H            8.34273084688993        4.98072059333577        6.19126544673415
H            9.50384306155411        4.98891214290450        4.85578567974150
H            9.73422005869522        3.90603876783904        6.22111956424569
H            7.57957258346478        5.92490421454183        4.31313043092604
H            5.85868122761365        6.85730982062566        2.84495743630653
H            1.57293621475434        6.08641949800408        1.25572258166617
H            0.80666749429709        8.26455974873279        0.39503700565553
H            0.55308200049561       11.59730012299481       -3.25117494389214
H           -0.26347019134793       13.72873689643804       -4.17411818755740
H           -0.48808853757582       16.18699520528612       -4.03816766531582
H            1.45947697731221       15.81315843688051       -0.89926277127902
H            2.27990873408944       13.67507244459719        0.03201706192237
H            4.83516609060069        9.35583658253462       -0.41744738249708
H            5.59465070868985        7.16595280550559        0.42027255930987
