111
 energy: -23.157844373201 gnorm: 0.000738126444 xtb: 6.6.1 (8d0f1dd)
C            1.07016755282650       -0.02575238921861       -0.17325249564211
C            2.53272335636666       -0.44820758755544        0.05898012630380
C            2.62566571779085       -1.97780762759960       -0.10201896514860
C            3.43738591429332        0.20872805521866       -0.99922728023270
C            2.97852086458452        0.00504447978660        1.45765355053739
C            2.92187140907365        1.37109447176025        1.78574434203155
C            3.30492240607475        1.84599825405122        3.01518200127957
C            3.76350294110205        0.94318085737189        3.96965691900662
C            3.84176640360570       -0.42193240244271        3.65824366925201
C            3.44639321076702       -0.88742419805695        2.40466302344722
C            4.37487581008995       -1.09575990613625        4.81860215423830
C            4.65544274042771       -2.43683225669931        5.07522164563549
C            5.15953068749173       -2.81213295374001        6.30601196584960
C            5.46639038276099       -4.29455202433478        6.56918494256735
C            4.17554951377426       -5.11797372110656        6.40593784878563
C            6.52267203322668       -4.78078981605633        5.55989977851322
C            6.01185574733444       -4.52450940830862        7.99170617885101
C            5.37438660712656       -1.81921047673646        7.27957882402658
C            5.10477276514978       -0.49362671792736        7.04327347614422
C            4.60544208572684       -0.11989807196192        5.79920685957628
N            4.23084438485226        1.13976287383672        5.28613258551100
C            4.32653648367628        2.40152914402215        5.96368956456015
C            3.25070451376707        3.28178748585935        5.97144590209312
C            3.34972429081644        4.50331993365618        6.59390362553267
C            4.52741363746727        4.88481275430330        7.22967215179818
C            4.62859584377842        6.14292844735588        7.85422051008669
C            4.70587194183443        7.24009155748915        8.38529131578358
C            4.78311131421527        8.50656621604926        8.99718102587526
C            4.74381650504036        9.67888140278103        8.21634262300216
C            4.80275353909540       10.92617398107283        8.78528900600993
C            4.90748872673265       11.02514612074488       10.17350953811276
C            4.96840534474497       12.15375633511098       11.06793132478269
C            4.95977120373354       13.53108115303260       10.84461208625698
C            5.03916467056252       14.37300819680119       11.92461858413406
C            5.13019462302857       13.88136088636606       13.24216491222170
C            5.21591579661662       14.78223477819969       14.32136730251873
C            5.28753770907205       15.58898714750185       15.23610410198446
C            5.37906667876651       16.53978148346490       16.26972792441088
C            4.38011816003165       17.49055331392611       16.45360369279594
C            4.47506299914247       18.42933028065733       17.45281701497386
C            5.57908181687168       18.46611214623619       18.30741473580404
C            5.61682656505488       19.45672683484829       19.37368510925346
C            6.67585820049140       19.94849625731271       20.05734088769592
C            6.41880332546058       20.82337542323680       21.11103116696064
N            6.23587175926010       21.53340813182105       22.01321457313261
C            8.10174437569673       19.65342801255405       19.75839993317221
O            8.43154999937661       19.33681424073245       18.63060331427767
O            8.98473085372224       19.75746533670567       20.79503442192379
C            6.56830331538150       17.49770161925159       18.12722666243916
C            6.47433110447129       16.56022881062033       17.12716042769857
C            5.13781950402689       12.51527989133883       13.46224655562289
C            5.05190620325032       11.64791989973750       12.37664890679182
N            5.04995389509664       10.23988129963968       12.31818081829732
C            5.11816867667605        9.33418747904192       13.43044939948001
C            6.05177239073297        8.30489611009448       13.44203105472573
C            6.09211817996703        7.41233263599291       14.48759882404638
C            5.20490868448714        7.53137652825889       15.53770060543151
C            5.24329013149059        6.51461430610860       16.66722979636927
F            4.83636988674434        5.32281026056038       16.17895083033405
F            6.51235921796155        6.42343732726531       17.12046820878146
F            4.42028104703760        6.91912876377650       17.65882957092892
C            4.27739528567188        8.55428704809299       15.53778288776791
C            4.23336016164429        9.45128103090996       14.49544709527900
C            4.95853517198177        9.86476182072073       10.96339015615230
C            4.88974469651516        8.60643124423631       10.37243083697042
C            5.60037831196366        3.99828928505812        7.22740391082322
C            5.50158516501687        2.77616540012138        6.60512183359249
H            0.71913419000982       -0.35795121121503       -1.14943603506783
H            0.95741823401723        1.05620725195187       -0.13103844352935
H            0.41958728059168       -0.45999022688003        0.58480408575125
H            2.29492461589352       -2.28234501525951       -1.09427557841231
H            1.99580614322629       -2.48714085851506        0.62624776670036
H            3.65070941783518       -2.32421514391942        0.02323469506849
H            3.15530158002947       -0.10622551427675       -2.00309074804574
H            4.47900071575230       -0.06678874819278       -0.83908441792844
H            3.36904162651712        1.29460587995748       -0.95928145153741
H            2.56980227091276        2.06803177271273        1.04574254698399
H            3.26750800690201        2.89511397370202        3.24616380531164
H            3.51645966555191       -1.93795089284170        2.19706245129138
H            4.47466195469311       -3.16680346188456        4.30869404658357
H            3.77773827267723       -5.03543647852717        5.39585202115537
H            3.40838814611758       -4.77128721464768        7.09710398718152
H            4.35833467388642       -6.17297781458012        6.60617233966249
H            6.16343023570778       -4.69033107308249        4.53610499277915
H            6.77515916960424       -5.82617206276610        5.73296295121923
H            7.43630433501017       -4.19413043229402        5.64691830526494
H            5.28967392728025       -4.21088336498574        8.74434959066503
H            6.93942128269326       -3.97589767420813        8.14990281136349
H            6.22227462161092       -5.58032017231666        8.15816374161231
H            5.75999315044588       -2.09984162361339        8.24298801623510
H            5.26159649104773        0.25274700761786        7.80087783822191
H            2.33400884774669        2.98584019011045        5.49238064513124
H            2.51358229984178        5.18131144003572        6.59598664954483
H            4.66012348857339        9.57946223682850        7.14787161306659
H            4.76575384952086       11.81792671700874        8.18544985671458
H            4.89425581010433       13.91155951831455        9.84094477511830
H            5.03590366017963       15.43907745205079       11.77576183795053
H            3.52785770716031       17.48288302944064       15.79588894724015
H            3.69427419118155       19.15957699881766       17.57894334189293
H            4.65401355539814       19.84020091733603       19.67107932114426
H            8.54144553147234       20.06948916960899       21.61134092734408
H            7.43120973324118       17.50726702990751       18.77044987632538
H            7.25638957834526       15.83276836088212       16.99106179853902
H            5.21670679551939       12.12525350808159       14.45974610165464
H            6.74665025122466        8.22201499608637       12.62481916884584
H            6.81059381467521        6.61023014075768       14.50470279672012
H            3.59013231438843        8.62989720101087       16.36335650041108
H            3.50063489676113       10.23889695917096       14.48114447778178
H            4.90855943596478        7.72222227031476       10.98164322485369
H            6.51460872181578        4.28600886665227        7.71746756356622
H            6.34019106639320        2.10251889906355        6.58837537654359
