109
 energy: -21.783756578795 gnorm: 0.000777634653 xtb: 6.6.1 (8d0f1dd)
C            1.05052468336318       -0.55288840443916       -0.01096066439586
C            2.57618606732504       -0.35869646917157        0.06993871743340
C            3.18112490921422       -1.57106866199421        0.80432827034181
C            3.16940180867143       -0.30636427991403       -1.35035940193759
C            2.88338749886202        0.95959635518607        0.79814901918181
C            2.40241102784493        2.16443793264645        0.26581536549506
C            2.64127326533232        3.37899883178339        0.86427170283068
C            3.37955644784864        3.41432207224425        2.04160562317876
C            3.88203572993918        2.22097646167529        2.58179251999502
C            3.63137910300339        1.00050481520342        1.96478546873848
C            4.63852178811031        2.57142822162980        3.76667479255492
C            5.33887855763663        1.80044218588101        4.68695993211917
C            5.97247247283622        2.40888925729447        5.75861828676676
C            6.74605732857617        1.54173101074056        6.76477341408224
C            5.78107234057958        0.53150645916186        7.41273438372249
C            7.86882703761979        0.78812379104680        6.02763193613456
C            7.38400842844395        2.38941485746307        7.88279515957063
C            5.88150755124930        3.80301692126414        5.88987666895492
C            5.19460078163479        4.57990885707764        4.98644549131875
C            4.57334723530577        3.96586506415443        3.90501127859200
N            3.79973358862272        4.49699400602546        2.84796337024969
C            3.52697140201035        5.88031825077402        2.60960128922332
C            2.25358512087561        6.30187095127171        2.23168495352512
C            1.99971745359450        7.62695788149563        1.97591384177663
C            3.00777063533303        8.58117627678816        2.08695094411880
C            2.75279564908540        9.93382397718683        1.79940622823644
C            2.54138459579207       11.10334148891681        1.51545377742155
C            2.31157949357449       12.44315002617363        1.15066453916242
C            1.49837736211362       12.74319588800500        0.04394155075249
C            1.26121509931397       14.03962470413870       -0.34740930905693
C            1.84979600186406       15.07367611869128        0.37400238700961
C            1.80506673356883       16.51079348699299        0.22825622362309
C            1.17851976895939       17.33807053524996       -0.69844798577395
C            1.36061916604073       18.69684772149974       -0.59885851628835
C            2.16237244135455       19.26276555400040        0.40785894961291
C            2.34620760867803       20.65716223772878        0.45306937428505
C            2.50112540449958       21.86931062055381        0.44078636550281
C            2.67942961424446       23.26227069234405        0.37360786969354
C            1.87534725875049       24.12704375432754        1.10941474226511
C            2.04197264145690       25.48801255614103        1.02423235770516
C            3.02024773999033       26.04857006055989        0.19795272154148
C            3.14606803447496       27.49209413750789        0.13853424078610
C            4.01944972300864       28.22727781087273       -0.59053276274742
C            4.97836324539488       27.67595332843340       -1.43463739281306
N            5.75648786192300       27.14893513668995       -2.12097106675341
C            3.95520170748326       29.61549080768678       -0.49589324824253
N            3.87883723223115       30.77312133903105       -0.39788464697718
C            3.82573553832540       25.17118409432990       -0.53380381826045
C            3.65846192201557       23.81196874087828       -0.44759066100428
C            2.77998621049367       18.43669674652194        1.33396562209658
C            2.59757965366355       17.06020823447725        1.25140033500056
N            3.13180253123451       16.00856038426029        2.02634159032947
C            3.97784293226443       16.14326865873702        3.17315287604831
C            5.12516496469857       15.36472655943898        3.30145613203946
C            5.91979821381193       15.47165442363381        4.41730791343676
C            5.58700781704992       16.35278043815785        5.42617214092759
C            6.46518502432158       16.43639070660121        6.66137584927515
F            6.46979212735933       15.22848444564869        7.26197658901475
F            7.71477844623270       16.76808593816089        6.27650404107396
F            5.97027250234666       17.37224615860624        7.49731759663797
C            4.45552801268162       17.13588845078492        5.30743954822349
C            3.65809245799747       17.03680990022526        4.19223298641144
C            2.67205786009793       14.79189271647260        1.47847728345734
C            2.89286758769793       13.47549541497222        1.86948223361542
C            4.27820728473694        8.16106879420870        2.47217952703163
C            4.53341818019920        6.83671416555066        2.73033150384215
H            0.80262276267039       -1.49171723525547       -0.50418908246069
H            0.57700366965097        0.25120260191515       -0.57129093121267
H            0.61138041025104       -0.56978922728916        0.98548576688652
H            2.95131872251605       -2.49602915506128        0.27712806707083
H            2.77949769045437       -1.65900031256209        1.81274612418203
H            4.26526038014157       -1.49022921673574        0.86791820179456
H            2.98592689261235       -1.23780732244370       -1.88408944990933
H            4.24600514969463       -0.14664807295137       -1.31215154502911
H            2.73227252268858        0.50204655439084       -1.93359663091994
H            1.83049157024941        2.13800562110664       -0.64484254991673
H            2.28381239093093        4.29351393525279        0.42770615431493
H            4.02954814471412        0.10638069689274        2.40447863198482
H            5.37965652509025        0.73544372947901        4.55700898684711
H            5.34277157053618       -0.13134518830049        6.66885984573904
H            4.96805152622774        1.04775970158300        7.92120084785865
H            6.29791912223820       -0.08671543773328        8.14540181467180
H            7.46671238707236        0.13020626329723        5.25933724343129
H            8.44756848933117        0.17709548586327        6.71887723060852
H            8.54984344847865        1.48809034139845        5.54561666238960
H            6.62538798580158        2.92725552629797        8.44950972597308
H            8.08978897423481        3.11118020181369        7.47425988902174
H            7.92931629344477        1.75771004482833        8.58272020342147
H            6.35869717696205        4.28760016785620        6.72227005585750
H            5.11748168694710        5.64424127744663        5.11403724116913
H            1.46358380689646        5.57484911804112        2.16596729050005
H            1.01338775652666        7.94421736391193        1.68400167645950
H            1.05536401049485       11.92869272294927       -0.50271405899681
H            0.63574253585338       14.26304757354474       -1.19307529488150
H            0.57366540395779       16.91085260623369       -1.47818692871236
H            0.89067681718918       19.35435069924276       -1.30992850965256
H            1.11345277184249       23.71241522626237        1.74722857464818
H            1.40810699254038       26.14072360378755        1.59984628284150
H            2.45524185139803       28.04791872185730        0.75020981084228
H            4.59157274058614       25.55833926976712       -1.17946481526163
H            4.28604894484108       23.15119338104165       -1.02149122932777
H            3.41120949374721       18.85416256173917        2.09574179783796
H            5.39220763015500       14.69292543264388        2.50482107789269
H            6.81024725038542       14.87473799385490        4.52439696595959
H            4.21045193995297       17.81524499661240        6.10686272318848
H            2.76217472603835       17.62633948532352        4.10807170216512
H            3.50384772602060       13.26038343824877        2.72573936501615
H            5.06422860714013        8.89167055636848        2.55662228941065
H            5.52512758660222        6.51674466799649        2.99680072448640
