105
 energy: -19.109834112706 gnorm: 0.000510864965 xtb: 6.6.1 (8d0f1dd)
C            0.68523624525805       -0.12546766605801       -0.26683483190411
C            2.22356929403903       -0.10652544637063       -0.17804454747335
C            2.82782900922184       -0.35463966681381       -1.57329532029732
C            2.66223305703828        1.29250319978382        0.29994347696887
C            2.69292642981275       -1.21407422005329        0.78100354353060
C            3.47322604185329       -0.93867039086964        1.91354781663428
C            3.89961262186779       -1.92843090248403        2.76828198822190
C            3.54270316124534       -3.24601670644961        2.50683750397735
C            2.77581033810888       -3.54330601594493        1.37039927126603
C            2.35270974224669       -2.53153714600176        0.51652440655255
C            2.60239242987490       -4.98141325215956        1.33456777147849
C            1.92712774434112       -5.81701231746474        0.45288364564911
C            1.90724592606311       -7.18541835821592        0.67276862305649
C            1.15958499224605       -8.09680666943520       -0.31582573577677
C           -0.32851681686573       -7.69882711465690       -0.34984090750927
C            1.77297423621944       -7.93499958592753       -1.72013649665589
C            1.25520608859412       -9.58264202683073        0.08580541792541
C            2.57127732990082       -7.69204048021797        1.79973985126007
C            3.24555401909459       -6.87861662487121        2.68066616334099
C            3.27537255102054       -5.50889729927994        2.44677509854488
N            3.85987364440312       -4.44944775490074        3.17815889767096
C            4.65513453560660       -4.57147085176280        4.36056253065147
C            4.46961147041433       -3.70883091976830        5.43981688641391
C            5.24868841054845       -3.81322452835033        6.56558621710775
C            6.24563969014103       -4.78101124813603        6.65755604957998
C            7.05495799716421       -4.87468622058722        7.80369132610733
C            7.76707694919950       -4.93680592422921        8.79519545765492
C            8.59936845496859       -4.98994014598917        9.92911545627076
C            9.06417018950910       -3.80274471223097       10.52006863902953
C            9.87578070420895       -3.81736437410671       11.62997594139716
C           10.24435765508299       -5.04389541292318       12.17294915558577
C           11.05751671058743       -5.40081417059905       13.31397443896337
C           11.76508912299117       -4.63752855814475       14.23696548829500
C           12.48155394484912       -5.28253827564948       15.21750505156330
C           12.51716460313346       -6.68452260400393       15.30385875992905
C           13.27386146042987       -7.31179447109137       16.31209242521097
C           13.93712661397795       -7.84908595538410       17.18604538496913
C           14.70784447323748       -8.46428278157028       18.19123109631046
C           15.59404633373595       -7.72009621140889       18.96423240671968
C           16.35038265195772       -8.31851122565523       19.94485417907574
C           16.23999015219005       -9.68396777622168       20.17982941802856
C           17.02283660894383      -10.36217635248640       21.20767851629196
O           16.94817004473320      -11.53794439646768       21.43169902761134
C           15.35756734598175      -10.42909816836320       19.41179607349488
C           14.60191424695398       -9.83024337290613       18.43180342707839
C           11.80918295373188       -7.44291249597802       14.38484900432062
C           11.07220654468184       -6.80440270371639       13.39341764997556
N           10.29963752043478       -7.32810111090250       12.33532755435992
C           10.07559334656785       -8.71400801090148       12.05604528782206
C           10.25128248618597       -9.21308837410838       10.76774615168637
C           10.02086462323782      -10.53976701029280       10.49629003303480
C            9.60735410596646      -11.39265300124619       11.49972209711593
C            9.33889802189696      -12.84817810103084       11.17375608236811
F            8.36005477855261      -12.90392124871271       10.24933416539031
F           10.46947860955664      -13.39326047710974       10.68339841519892
F            8.95896925183015      -13.49295136813521       12.29424979033468
C            9.43264405135615      -10.91105516021381       12.78246038010708
C            9.66634146733034       -9.58608202885486       13.06216405522336
C            9.79666832810712       -6.24151743569420       11.58883597187699
C            8.96855464297551       -6.21065253269654       10.47200935676364
C            6.42822058126342       -5.64594518961832        5.58180024565399
C            5.64781212695888       -5.54552057910172        4.45660959157087
H            0.32223536073823        0.66350912573890       -0.92407720284866
H            0.24048921917812        0.02509700237867        0.71577813980914
H            0.32082773252207       -1.07397473845774       -0.65668883466047
H            2.52604323133498        0.42262315751087       -2.27399995470478
H            2.50594811469571       -1.31148618151878       -1.98013470423168
H            3.91587290290118       -0.36070663836828       -1.52670994630999
H            2.30959491370635        2.06304860312860       -0.38439712306907
H            3.74734240007399        1.37061288964205        0.34712527155669
H            2.25428247209190        1.51737438672947        1.28427596918432
H            3.75673656027917        0.07618822720858        2.12595051770765
H            4.51654857371727       -1.69981490284999        3.61793816135994
H            1.76957278119356       -2.78469546609092       -0.34856309653185
H            1.42284440034022       -5.38963771553174       -0.39303378971939
H           -0.45704395878908       -6.67085446685898       -0.68354244652810
H           -0.77400864010952       -7.78686394225939        0.64001127525635
H           -0.88910274392075       -8.34011865207083       -1.02861465943487
H            1.68085676806030       -6.91138178946666       -2.07831983198809
H            1.27687024260586       -8.58387348321868       -2.44058403995943
H            2.83134421851608       -8.19146812771502       -1.71039609534024
H            0.81056019639714       -9.75540367614055        1.06472772534993
H            2.29105555757109       -9.91772132061048        0.11036784383137
H            0.72536392736849      -10.21116228514703       -0.62881101000064
H            2.55477290133558       -8.74956398378372        1.99165681362972
H            3.73015831100284       -7.28314877827213        3.55045447187042
H            3.68608295224296       -2.97351100553400        5.38858198143085
H            5.09564634894196       -3.14429525600420        7.39510412974855
H            8.76791357678723       -2.86324672236738       10.08598935888823
H           10.22305128697515       -2.90425928664319       12.07964944121785
H           11.74961298478335       -3.56410775237778       14.17223129439982
H           13.03822644445916       -4.70954319821287       15.93923348737427
H           15.68185376939485       -6.66210140715551       18.78307917173705
H           17.03392028754126       -7.73361249600586       20.53698798674878
H           17.71842822052925       -9.79788116999293       21.81671836970782
H           15.28241252432379      -11.48776296041634       19.60472068102558
H           13.91925573624933      -10.41576216840027       17.83944732745761
H           11.84195988204460       -8.51528644583463       14.42860824965968
H           10.59288463553184       -8.54984829593939        9.99250747927994
H           10.16009796826765      -10.93717493421966        9.50404710356941
H            9.10394957675235      -11.59236502436020       13.55047906550805
H            9.50582520142935       -9.20181964506114       14.05426105493553
H            8.60838429184126       -7.12554510102713       10.04061561544730
H            7.20020388161045       -6.39384253254526        5.64155566971505
H            5.81750309164379       -6.19870991015381        3.61896425520964
