124
 energy: -21.909853140929 gnorm: 0.000380448183 xtb: 6.6.1 (8d0f1dd)
C            1.03111957598294       -0.59566319900805        0.39489229772907
C            2.54443794419768       -0.69071032471855        0.12509848154161
C            3.32167845808426       -0.05490057737497        1.29355832132504
C            2.93161185753273       -2.18032350040960        0.04134026289914
C            2.87569406685587        0.05821904606364       -1.17591296963094
C            2.62234274053813        1.43486602956566       -1.25758842857715
C            2.89443533079872        2.16616309423813       -2.39019428635988
C            3.44283312248256        1.51964803701884       -3.49170967207947
C            3.68553490061822        0.13873981032584       -3.43670296421698
C            3.40681051950493       -0.58604919573544       -2.28342284396672
C            4.20750529022154       -0.25633993808914       -4.72955421356269
C            4.62678930530716       -1.48370757499665       -5.22916932349297
C            5.11074772663018       -1.57494607872878       -6.52488906692708
C            5.57001894595772       -2.94078617782700       -7.06112889926094
C            6.72968807029572       -3.46365067129102       -6.19267459170996
C            4.39190665947820       -3.93180670497554       -7.00551171963093
C            6.05846129737968       -2.85120559880017       -8.52051911259597
C            5.17192617048492       -0.40824203549962       -7.30189544437756
C            4.75990274350438        0.81382726341818       -6.82220283429387
C            4.26114472917506        0.89682577889600       -5.52727939067179
N            3.79497049898164        1.99941210770865       -4.77433993230226
C            3.70844497582673        3.35611823355483       -5.21788234836389
C            4.12776014212706        4.40135085729907       -4.39647586094752
C            4.04071622716123        5.70521678645265       -4.81858658355249
C            3.52962002150625        6.01570224532065       -6.07624247536419
C            3.43886290749888        7.35267413795207       -6.50522076584718
C            3.35961283921112        8.51346943327674       -6.87791031843425
C            3.26751457760779        9.85169023820035       -7.31225971125549
C            2.93150055534874       10.14680189746850       -8.62866518637111
C            2.84161788774439       11.45417249661046       -9.05430140791034
C            3.08544350100903       12.48677053461504       -8.17522964371282
C            3.42370051373541       12.22636015154231       -6.85207647212699
C            3.67357502120719       13.28412999378540       -5.95389049133211
C            3.88808239708686       14.20730172559584       -5.18291229313382
C            4.13664265615345       15.27362881964811       -4.29917124004372
C            3.31948078966230       16.40154338091049       -4.29429736028170
C            3.55882512149139       17.44100966807202       -3.42899299384114
C            4.62796266702842       17.39330378702454       -2.53581255121612
N            4.87410808168275       18.47056822309505       -1.62811500845069
C            6.13393778902451       19.03621889911187       -1.32393763258655
C            7.40357238424277       18.77077694817137       -1.82390153036838
C            8.47113501191824       19.50246007630637       -1.35700229580216
C            8.32061118303101       20.51287141748248       -0.39522294376739
C            9.51438070314404       21.32779875583908        0.12883986621767
C            9.29379354214503       22.81782604491064       -0.19309039399612
C            9.62995340533530       21.13738601018200        1.65302175841001
C           10.84184503023458       20.88352280271426       -0.51680166893348
C            7.05013614123364       20.78351233901556        0.08878857941515
C            5.96106542629403       20.05451215377123       -0.37430749003318
C            4.54513556738298       20.12601809298236       -0.07455523902516
C            3.81589345291320       20.92819949339252        0.79533026017369
C            2.44377531707694       20.76327080524036        0.90333018453382
C            1.65303173111343       21.65590974003544        1.87377060028355
C            2.17094627337232       21.43123203974620        3.30681889335612
C            1.84376262891774       23.13238537886024        1.47816178659913
C            0.14466216933667       21.33882022960256        1.84756596303399
C            1.82372227675967       19.77356082480388        0.12579418339626
C            2.53130089552281       18.97265555154883       -0.74075950497766
C            3.90507936920336       19.15162384190466       -0.85535850182339
C            5.44842113078541       16.26641216657976       -2.54396759405914
C            5.20588805773619       15.22682019091907       -3.40803932960316
C            3.50999364929290       10.90323739315554       -6.43721123144393
C            3.11066054163087        4.97147122527509       -6.89735351576318
C            3.19935271995841        3.66650295618455       -6.47786350067525
H            0.76226987041507       -1.13124837659990        1.30437566980071
H            0.46508152025252       -1.02696855893798       -0.42959686835698
H            0.71344819199296        0.43888164737891        0.51241385491852
H            3.12921706285436       -0.58588366622085        2.22485416741408
H            3.03755482692422        0.98536434049012        1.44153763558238
H            4.39382854685143       -0.08514504358112        1.10443115324116
H            2.70226842671801       -2.69227613171228        0.97503993194154
H            3.99816629489816       -2.29831222923994       -0.14487464702237
H            2.38264472372552       -2.68525586583316       -0.75216539787671
H            2.19493536268850        1.93580211590060       -0.40695382357721
H            2.67150156903962        3.21626648939063       -2.44116527371860
H            3.60521224299636       -1.64055907384486       -2.27407337479218
H            4.57434756187179       -2.35211849367621       -4.59988372149601
H            6.42089516724303       -3.59726074383377       -5.15741262607244
H            7.56515125023067       -2.76501877670525       -6.20460599709345
H            7.08920365218094       -4.42443364740454       -6.55869918465650
H            4.04246832983570       -4.07651531551272       -5.98480884411722
H            4.68203181341426       -4.90557224042889       -7.39785558934024
H            3.55349724571856       -3.56688435878711       -7.59722191243515
H            6.91238869047268       -2.18112491404561       -8.60921333962456
H            5.26712105939615       -2.49517656663982       -9.17865279831929
H            6.37129286024057       -3.82932938740495       -8.88377935384096
H            5.55535394565859       -0.46085706090217       -8.30478499950489
H            4.83406949921109        1.70070449335745       -7.42471534394202
H            4.54819762784098        4.16893306766772       -3.43406464265970
H            4.37162073196950        6.50585652851657       -4.17965639829043
H            2.74173780467396        9.33772007207011       -9.31318398819184
H            2.58023755445747       11.66954788304930      -10.07736901159156
H            3.01643523484855       13.50935823985608       -8.50503350011812
H            2.49501987242511       16.44906928391753       -4.98487898510351
H            2.93867174242427       18.31965417548060       -3.45069820407766
H            7.53449283763982       18.01563428600918       -2.57739843989472
H            9.44839146343319       19.28873031203100       -1.75049293844144
H            8.39330499907981       23.19817189809373        0.28584253336836
H            9.19044455216371       22.96866290740111       -1.26677081809208
H           10.13308683627031       23.42013758146458        0.15207287580022
H            8.73671942217211       21.48957617581816        2.16586407092483
H           10.48062064505123       21.68836859885774        2.05189090231614
H            9.76462028059579       20.08531653532097        1.90047214665417
H           10.81945762374170       21.02153951487009       -1.59686553261696
H           11.05115594979046       19.83608861710144       -0.30426718779003
H           11.67469730606184       21.46903805942653       -0.12943835439019
H            6.89315048133227       21.55553210163153        0.81832937690710
H            4.32807417020856       21.66781351052555        1.38144531181884
H            3.22380915917938       21.69371796958271        3.39366979671995
H            2.06192304688968       20.38695301798386        3.59633861063485
H            1.61716845305110       22.03824350336069        4.02178500437120
H            2.89024894257581       23.42660736714252        1.53445155323406
H            1.27856722788525       23.78933480347867        2.13793856588268
H            1.50232725298440       23.30501915550085        0.45844061668926
H           -0.04612272434791       20.30907764190919        2.14639505912572
H           -0.27266683192406       21.49564997262377        0.85390720098962
H           -0.39785418239300       21.98500599164118        2.53650791547886
H            0.76189055347252       19.62656395559727        0.20610462785653
H            2.04240648299361       18.20500433204320       -1.31234479907543
H            6.25982144993747       16.20960063085860       -1.84012995810335
H            5.84077836083073       14.35752514184449       -3.40310614069536
H            3.76982495988847       10.68819513350324       -5.41612407549310
H            2.70977182537394        5.20300613316846       -7.86923634598538
H            2.84761193813928        2.86830968765908       -7.10730682629870
