66
 energy: -15.143938331179 gnorm: 0.000798903262 xtb: 6.6.1 (8d0f1dd)
C            0.93677030227023       -0.03106742017350       -0.01377881015603
C           -0.28486529228821        0.00466154812235       -0.01253352758814
C           -1.68760717496328        0.00604090685085       -0.01095929719969
C           -2.38156614190994       -1.21155723425542       -0.00934403721217
C           -1.68053593263746       -2.42663188930443       -0.00987485296905
C           -1.09763958959305       -3.50072874287650       -0.00997070579665
C           -0.45449061175196       -4.73387040845906       -0.01004043391254
C            0.89015259760310       -4.94019350021920       -0.01132806103405
C            1.25290689538934       -6.31375176461091       -0.01073448046503
C            0.18935042241523       -7.14659332098807       -0.00896286460562
S           -1.29676006135515       -6.26367127432416       -0.00825335489119
C           -3.78242460889177       -1.21971495090797       -0.00773253983731
C           -4.47794465566808       -2.43795263678650       -0.00648506453344
C           -5.08802626853173       -3.49679099306553       -0.00438858952625
C           -5.78223943658041       -4.70180785656825       -0.00352038592989
C           -5.22990876829292       -5.94499684662329       -0.00456129277008
C           -6.19005495151120       -6.99185497508273       -0.00327501375454
C           -7.46523799976965       -6.54620867375123       -0.00112496466485
S           -7.52470159109866       -4.81849887468142       -0.00066198073866
C           -4.48994732871359       -0.01073831464085       -0.00676095480142
C           -5.89253598610009       -0.02676542620010       -0.00352504468593
C           -7.11393663075790       -0.06618474915661        0.00001091771961
C           -8.50314291682026       -0.12976246130674        0.00584558198392
C           -9.25548008052099       -1.26335208125916        0.00744950983316
C          -10.65433267366158       -1.01507324304556        0.01400812797697
C          -10.96328033908378        0.30004665295152        0.01745522067897
S           -9.53690019564093        1.27682677645067        0.01261725451400
C           -3.79712458599629        1.20725461321049       -0.00864977916822
C           -4.51508126528024        2.41226176344815       -0.00756137668635
C           -5.16724362220906        3.44587955950911       -0.00474811271414
C           -5.92463619200937        4.61255437264758        0.00104175316212
C           -7.28293523302626        4.69546337636458        0.00664438967352
C           -7.76952960135762        6.03094284101814        0.00977628465486
C           -6.78684921318357        6.95825705331246        0.00731896114408
S           -5.22761755702631        6.21203781999992        0.00125789051353
C           -2.39531447822510        1.21621186424132       -0.01071925325991
C           -1.70102656455317        2.43513776648426       -0.01228757938214
C           -1.09179954994030        3.49468269018896       -0.01275522586880
C           -0.39068392199859        4.69627563065694       -0.01512111411706
C           -0.92590883389086        5.94741973163173       -0.01446239428554
C            0.04879131942747        6.98183858051044       -0.01756756461324
C            1.31832732848200        6.51990775306675       -0.02048940033556
S            1.35170520352096        4.79173210364071       -0.01925140366199
C            2.32599745559278       -0.10078137452814       -0.01488812122720
C            3.18912599078279        0.95094940552233       -0.01643029169505
C            4.55606825327089        0.56294958088088       -0.01747925688977
C            4.73097839547026       -0.77656632331099       -0.01658747455432
S            3.21340917608507       -1.60414981510967       -0.01461190579237
H            1.60257366567680       -4.12827212958501       -0.01260043068212
H            2.27836695443578       -6.65373649292048       -0.01161187383794
H            0.24073972538852       -8.21901786978751       -0.00793151785746
H           -4.16180569587664       -6.10694012401106       -0.00615108629461
H           -5.92247982781870       -8.03855854149897       -0.00378984419001
H           -8.34012613521206       -7.16856161708717        0.00052631313957
H           -8.81974738259324       -2.25193021280388        0.00431071516771
H          -11.39372720563000       -1.80280076496191        0.01648004020274
H          -11.95799704256778        0.70409239341893        0.02290853889457
H           -7.91998329818905        3.82300249131699        0.00761947685777
H           -8.82183535688238        6.27579514541872        0.01431478633504
H           -6.93542132866612        8.02162902187303        0.00862551756499
H           -1.99127623390404        6.12457929163078       -0.01196258934974
H           -0.20496022210238        8.03198504236430       -0.01754514835299
H            2.20162761828261        7.13018410439155       -0.02322878230423
H            2.85438893145653        1.97775096411910       -0.01696995627358
H            5.37106776304862        1.27211934760900       -0.01866527854390
H            5.67986158602436       -1.27882728895232       -0.01698826106750
