116
 energy: -22.709098104786 gnorm: 0.000608057219 xtb: 6.6.1 (8d0f1dd)
C            1.52134104787293       -0.42953336921077        0.14677824225838
C            3.03028305573402       -0.12304196937438        0.13062059271532
C            3.55480119023148       -0.01997863738228        1.57449829664590
C            3.75506580411225       -1.29045604252739       -0.56680223110117
C            3.26870380810552        1.21023556822046       -0.59473271284047
C            2.67960317792223        2.38206603965441       -0.08634129555010
C            2.83675161778996        3.60377638981126       -0.69273020710464
C            3.60937740262224        3.68440084695870       -1.84745741114685
C            4.20148848999456        2.52734142782854       -2.37463592751108
C            4.03165509437186        1.29404586947399       -1.74534250865608
C            4.89224193301138        2.91248395370299       -3.58324712049394
C            5.64039964942019        2.18346722966045       -4.50680511947360
C            6.19500948562824        2.82069741323779       -5.60079018457370
C            7.01373828939235        1.99960597003892       -6.60894968518722
C            8.21084435151405        1.35456233381705       -5.88656417186831
C            6.12006443607516        0.90104362322989       -7.21358344382668
C            7.55346360668334        2.87286266309321       -7.75786442025411
C            5.98833695257327        4.20464979198916       -5.75439019377964
C            5.25159768443182        4.93757902992170       -4.85603138896642
C            4.69132649354347        4.28963335733344       -3.75904626899659
N            3.90669515255225        4.77619835446122       -2.69138705579798
C            3.40020462331689        6.11065244988401       -2.53904252245832
C            3.53199031151436        6.78557971172855       -1.32947861463493
C            2.99315905965176        8.03707480040688       -1.16477450447783
C            2.29044797987915        8.66049525922002       -2.19922311254487
C            1.69573738455998        9.99756159232306       -1.98954829331821
C            0.44951285990399       10.31408564627281       -2.48546561270266
C           -0.33448390011042        9.38310631782208       -3.15781410734333
N           -0.96278722838208        8.58632345872170       -3.73032240787267
C           -0.09115755080207       11.58656455274427       -2.33563084773193
N           -0.52247247025140       12.65822700987648       -2.18325806231988
C            2.47960477400286       10.98674169890861       -1.21733169138716
C            1.89462544041455       11.76703516128863       -0.21647189182465
C            2.63466258411218       12.68373693861845        0.48704526584876
C            3.98786838504071       12.86004824208281        0.21636859930405
N            4.74614035349385       13.85878713142671        0.91573210526711
C            5.47157413495719       14.91122557493650        0.31720417296325
C            5.67644533702685       15.23681387530609       -1.02025393113037
C            6.39577171293749       16.36639000106098       -1.32520154217567
C            6.92824037791885       17.20631292927301       -0.32894160366614
C            7.71413386485533       18.48145471082540       -0.67114026675533
C            6.97570653754541       19.70213537398880       -0.09167432476296
C            9.12448371304341       18.39035306221927       -0.06022084605474
C            7.85631466208756       18.67786893673481       -2.19277920694862
C            6.71896218067600       16.87945914635525        0.99786778367449
C            5.99118020333258       15.73593434109167        1.32555087089108
C            5.58112390529459       15.17519487510859        2.59202045641698
C            5.80453274245328       15.57332731326812        3.90950923952423
C            5.27533651116094       14.83511310946836        4.95145450520651
C            5.52901545686451       15.29179987675755        6.39642212397302
C            7.04567691947312       15.32832697806775        6.66050078365925
C            4.93434564120046       16.69804600726652        6.59508558753173
C            4.88164652626940       14.34115532451753        7.42168020796369
C            4.51524446958402       13.68887030259878        4.65128228651740
C            4.28248815940880       13.28421967743970        3.35940775281489
C            4.81554294692822       14.03309471843904        2.31453148105603
C            4.58187498422131       12.07710580004734       -0.76869281961248
C            3.84429312834415       11.15359700321218       -1.46666276936803
C            2.18225363662477        7.98433504205268       -3.41744768322533
C            2.72606462175563        6.73524490676239       -3.58351689927789
H            1.32188009187214       -1.38222501800684        0.63651178982493
H            1.12899770933535       -0.48304001158688       -0.86832172471577
H            0.96572216851102        0.34094896947449        0.67934785691021
H            3.41691257566312       -0.96046039286608        2.10726158952806
H            3.03348834125850        0.75696558198475        2.13176427467555
H            4.61781866674920        0.21911770152361        1.58137146394776
H            3.57983673887317       -2.22607193582444       -0.03639430585792
H            4.83143683255043       -1.12370149037438       -0.59397761094022
H            3.39808769559653       -1.41974678416561       -1.58808706692198
H            2.07931418455653        2.31659650438578        0.80419665738714
H            2.36525481972595        4.48798866029109       -0.30304043349011
H            4.49171697796578        0.42554725178816       -2.17681110467800
H            5.77641619780235        1.12875502434677       -4.35635665600017
H            7.88132246389453        0.68161822123951       -5.09626430322162
H            8.84357332697318        2.11746605275139       -5.43403420785412
H            8.82118540387941        0.77824321505202       -6.58128617608874
H            5.75527503163818        0.21978614790126       -6.44621672364810
H            6.66870616702830        0.31207528783934       -7.94801657300528
H            5.25498358040610        1.33925693298851       -7.71031364685692
H            8.20936342450056        3.65673205197391       -7.38044853801856
H            6.73955402725894        3.33794742559619       -8.31311228904065
H            8.12989844208876        2.27230029110652       -8.46110764539206
H            6.41801038678702        4.71152434147295       -6.59964246779520
H            5.10622790611779        5.99567215720111       -4.98093767653748
H            4.06672688343858        6.30981298714221       -0.52594896982866
H            3.09243792177298        8.54841783974002       -0.22282554976851
H            0.84552132085966       11.64741222927078       -0.00776706367069
H            2.17188378722085       13.29919221748880        1.23870270499960
H            5.25977850214326       14.61214956697564       -1.78994229450269
H            6.54739691110539       16.61357043617513       -2.36050576291369
H            6.89652494512695       19.63930346672153        0.99270898080800
H            5.96659897906225       19.76907510741901       -0.49715652297247
H            7.49910325664376       20.62641211243240       -0.33451983815694
H            9.08206879645521       18.30571746972952        1.02471631296847
H            9.71195863607176       19.27560422253798       -0.30206700394877
H            9.65401891455074       17.51867635728443       -0.44354690768516
H            6.88110540944021       18.77334866489493       -2.66918721705169
H            8.38562330657649       17.84178276405377       -2.64872851727519
H            8.41966275525887       19.58401311464293       -2.41407916228691
H            7.10003327737954       17.50257286497316        1.78533638253190
H            6.38741225110855       16.45517544806379        4.09952145863674
H            7.54720102235122       16.03149842396402        5.99718069137984
H            7.48753951070491       14.34512895482737        6.50167111815997
H            7.25569956283344       15.63111555495173        7.68594740572289
H            5.39874916177458       17.42234153666700        5.92739837171850
H            5.08343974779396       17.04393055438565        7.61754587542954
H            3.86381727472741       16.69492198995416        6.39234472589658
H            5.28253930116895       13.33228154807275        7.32901748042542
H            3.80085819592562       14.29923217774418        7.29063280761889
H            5.07612969234061       14.68019848249257        8.43890049483376
H            4.10027467110967       13.10602295133834        5.45379329379449
H            3.70473366139129       12.40361898188741        3.14242113017948
H            5.63120711717269       12.20521249756319       -0.96979943951820
H            4.30952396856443       10.55368987069280       -2.22976207874331
H            1.65323124249901        8.45163832193221       -4.22986323183946
H            2.61011315052893        6.20843639579983       -4.51460960268123
