113
 energy: -21.448717675069 gnorm: 0.000773606785 xtb: 6.6.1 (8d0f1dd)
C            1.05658809343593       -0.52706771109997       -0.26708048156930
C            2.55747105925873       -0.44527769317982        0.06692394890609
C            3.00474702707881       -1.81095240764524        0.62356316054572
C            3.35987035765847       -0.15726416097009       -1.21510800188862
C            2.79441250661646        0.68716135246288        1.07792565559944
C            2.42724811760241        2.00164618851332        0.73584414852900
C            2.61811605325868        3.06192670198896        1.58707908917483
C            3.19042742682940        2.82661174258596        2.83449102568106
C            3.57390419100656        1.52487365416322        3.19074066147023
C            3.37236389639085        0.45890125137387        2.31282575526703
C            4.16801155627566        1.59733855847864        4.50388667584224
C            4.73486820649926        0.62592048726353        5.32932007325229
C            5.25307734317200        0.98445783138996        6.55893894913371
C            5.90060925679722       -0.09367933200642        7.44146793804610
C            4.85872195284247       -1.17911844808036        7.76791002887892
C            7.08502299434795       -0.72287843856756        6.68453900802136
C            6.42718805867472        0.48904812363279        8.76701778100883
C            5.18085793653697        2.33330798579910        6.95627276579023
C            4.62611143558415        3.30223983399679        6.15640441205595
C            4.12157465132531        2.93916833499820        4.91037229863502
N            3.52240988754853        3.70475483440187        3.88808232051473
C            3.37152040498303        5.13342930475657        3.87495580672558
C            2.17599935896637        5.71721178072015        3.47154790292153
C            2.05411071250966        7.08909708069025        3.41605526653447
C            3.11514839764472        7.89205284864461        3.76656947645685
S            2.88001018379370        9.67158975507006        3.64618015115039
O            2.66763049651912        9.97315282367600        2.17792573077799
O            1.89823767955981       10.05527635310932        4.73298650710330
C            4.48540513352070       10.32587747396291        4.10681308222035
C            5.56653418136545       10.15982823355560        3.27090246624953
C            6.80184343987031       10.64464253656907        3.64186167650501
C            6.96216517034379       11.31769449805189        4.84850184133815
N            8.24994774945364       11.82117446716416        5.23777609313533
C            8.84403341708780       11.70234650981132        6.51265918482713
C            8.39937619279057       11.09500746266897        7.68454397283108
C            9.20067128443520       11.13474818135259        8.79949188479397
C           10.45964926959964       11.76494678589534        8.79581683520276
C           11.34876225421713       11.82321370751737       10.04757172491842
C           12.67052776938886       11.08602235660627        9.76598378654401
C           11.64031960564468       13.29476829225948       10.39668348066932
C           10.67185547326022       11.16330751427536       11.26423607788716
C           10.90620565512602       12.34724363829269        7.62529190306733
C           10.10462325637275       12.31728435410526        6.48389225848445
C           10.30386984364531       12.82689721552790        5.14903602384787
C           11.36818947090544       13.50763839337834        4.55742175521361
C           11.28888777065430       13.89060924216549        3.23235929599476
C           12.47972976115440       14.61940298372703        2.59118903768592
C           12.74073478981788       15.93351958994897        3.34960559488167
C           13.72661681466314       13.71892811715294        2.66958358652689
C           12.21756845652775       14.95601783003308        1.11068540552025
C           10.11637028367871       13.59378172517218        2.51182251579506
C            9.06000325902552       12.92356861959454        3.07859254729930
C            9.15323133002656       12.51917118110259        4.40805746490720
C            5.85536602904372       11.49245753112504        5.67221703631090
C            4.62562884684081       10.99286852420735        5.30191016162289
C            4.30070267579850        7.32682234896777        4.18553253796205
C            4.43163675636382        5.95691358809061        4.23648381331525
H            0.85681712527779       -1.33886990009558       -0.96594752279296
H            0.69946895936442        0.39663083935619       -0.71999130768699
H            0.47117368921195       -0.70636337346352        0.63421450722278
H            2.82549691250156       -2.60232747900589       -0.10382025911991
H            2.45400663151968       -2.06470895336744        1.52884624097274
H            4.06976532972004       -1.81130081856007        0.85359362393673
H            3.22730346444558       -0.95466629212041       -1.94575204110172
H            4.42350740542038       -0.07664757949742       -0.99281202377149
H            3.04380248769077        0.77588644201362       -1.67917244314497
H            1.98557708287182        2.18186248535960       -0.22866432765542
H            2.34710511908321        4.06267313090363        1.30323909890067
H            3.67703998795822       -0.52492914156799        2.61514675179942
H            4.76916346943034       -0.39364526446594        4.99325229029853
H            4.49398620728544       -1.66334587559402        6.86314910032691
H            4.00244272700630       -0.74723983668059        8.28503619453384
H            5.28654925994522       -1.94982281877739        8.40848508471544
H            6.75705203888074       -1.20165066581786        5.76292557137473
H            7.58089775698505       -1.47795937617167        7.29382349641955
H            7.82114992875746        0.03671282235805        6.42295676339426
H            5.61930780018833        0.92897712102272        9.35089832647646
H            7.18234639727087        1.25359739130950        8.58695424084103
H            6.88657185908409       -0.28955614828243        9.37550413368873
H            5.57104928647701        2.62180196561433        7.91576389491543
H            4.56830570958278        4.32681390499355        6.47703980621867
H            1.34649408821373        5.08387219619986        3.21025999010814
H            1.13287165654607        7.54883492391662        3.09602253215232
H            5.43360478147039        9.64760398653186        2.33209637855962
H            7.65878515505839       10.49267563818456        3.00956207445785
H            7.44632279800473       10.59800940424271        7.70003321063418
H            8.84838169720552       10.66665408121557        9.70112161765090
H           13.21432146005821       11.54916417220749        8.94377179634731
H           12.48190472178549       10.04663661993804        9.49896728912233
H           13.31792252221274       11.09754219822623       10.64239386795195
H           12.17522703963163       13.79566886704338        9.59108791060569
H           12.25027067922760       13.36867627538591       11.29657323045731
H           10.71298334741221       13.83934954500412       10.57188863312617
H           10.47286040615382       10.10823066295437       11.07912406662956
H            9.73116937669015       11.65755744218031       11.50521754913941
H           11.31198261146150       11.22724410193059       12.14383243294209
H           11.86570362746706       12.82786222695986        7.58037939588325
H           12.24320956315458       13.72342182411518        5.14173242243949
H           12.98677295414928       15.74614318110259        4.39386603662006
H           11.85991136758041       16.57430599189226        3.32303896619115
H           13.57086819648851       16.48184099313225        2.90515031220690
H           13.99085345456553       13.49668956009130        3.70250004258451
H           14.58542444911364       14.19995537255095        2.20233743174383
H           13.55029317874728       12.77280759209660        2.15866723687579
H           11.35465424933406       15.61260121305964        1.00410183193881
H           12.04087854117604       14.05224065578268        0.52830226209350
H           13.07510644467550       15.46660754827789        0.67317986585284
H           10.03762116527174       13.89944363068726        1.48397220383506
H            8.16528175695087       12.71773683803463        2.51937568449179
H            5.96839062110517       12.03653275549227        6.59333078790430
H            3.76124597786997       11.12178326475285        5.93271540947169
H            5.12567640645484        7.95817328963988        4.46562203566363
H            5.36295388547492        5.50831982926147        4.53470519343999
