111
 energy: -21.138762188301 gnorm: 0.000468623885 xtb: 6.6.1 (8d0f1dd)
C            1.98217241223798       -0.03519926700265       -0.55441985700467
C            3.48295699010134        0.15614212072406       -0.26771564532591
C            4.30618674327716       -0.79040347965132       -1.16058274418056
C            3.86314579427621        1.60741435935312       -0.61879801183813
C            3.76090879097171       -0.16764939139953        1.20821146618233
C            4.28577735033301        0.78820846307319        2.09851195926721
C            4.51957031833040        0.50415886617260        3.42162963810326
C            4.22370839929304       -0.76976505089359        3.89973123122306
C            3.71729757586247       -1.74155308449594        3.02407152672322
C            3.48439336928234       -1.43513070351526        1.68327059671580
C            3.53359398711892       -2.95317268299989        3.78580665006844
C            3.07774596409475       -4.22274051472722        3.42985984091517
C            2.99948506216460       -5.21921114965124        4.38370314916287
C            2.51094716585669       -6.61608924551961        3.97059542890752
C            1.06824974502127       -6.51387273442084        3.44340705366543
C            3.42932179013717       -7.16968733652695        2.86504443413347
C            2.52900537499502       -7.60384719088545        5.15313160620471
C            3.37037799605508       -4.91776289623540        5.70773957988647
C            3.82100949708949       -3.67385981450801        6.07530736748285
C            3.91969138373790       -2.67882945210943        5.10592999055080
N            4.34766822539648       -1.33664878234375        5.18544979467395
C            4.78758555676944       -0.66198916986584        6.37410022527975
C            4.34223680648990        0.60842789692145        6.68584789101661
C            4.76919807284308        1.17036277677004        7.85939167323647
C            5.60295595788036        0.45821493017259        8.68729177342181
S            6.12511002164991        1.18694761935675       10.26108247427976
O            5.90602720627427        0.17055308909812       11.35934397060164
O            7.45003471614759        1.88437553356137       10.06566252455868
C            4.80043886005148        2.40114534477544       10.47231359525312
C            3.77294620840883        2.08714796277502       11.32610488365507
C            2.73510891261760        2.97082636530227       11.47755519875626
C            2.78133476853837        4.15535813128732       10.76578356295131
N            1.72299161422671        5.12215874573637       10.84697667633385
C            1.15214277868039        5.81505524417975        9.75833330317469
C            1.40277871610613        5.74936221212459        8.38991499048867
C            0.68548601157645        6.55804331457984        7.54305909432982
C           -0.29941176422938        7.44774776226744        8.01209248580290
C           -1.09080169373021        8.36342494616957        7.06569323859724
C           -2.58972990763109        8.02796974964325        7.16989011542314
C           -0.85870753320630        9.83180588504525        7.46795555350629
C           -0.65364438018940        8.18866605346072        5.59856933808241
C           -0.55834332286040        7.49547278098417        9.36832865109979
C            0.16208334946358        6.68194824781814       10.24304987818385
C            0.10999104383230        6.51629062415547       11.67529732876233
C           -0.68599920420156        7.10799782859064       12.65602432889572
C           -0.51936718350308        6.75788702009028       13.98193172162392
C           -1.41632844138454        7.40858149295148       15.04607577861031
C           -1.19239418714472        8.93174259334573       15.03671060080245
C           -2.89067435582459        7.09926202260300       14.72571335715360
C           -1.10686692317257        6.87944483998925       16.45964067184240
C            0.47079655300493        5.81319376421883       14.31208341468961
C            1.26294732966426        5.22086598505701       13.35925724585235
C            1.07796866362568        5.56206905788095       12.02193744559816
C            3.88134599296367        4.37476413981829        9.94736528544736
N            4.87725036185472        3.52475520127802        9.77455192029011
N            6.06088804505762       -0.75372521988218        8.41018846275278
C            5.65314597921513       -1.27803983773242        7.26773085859301
H            1.74978161077225        0.20207081522521       -1.59212509363369
H            1.38307481986278        0.61459830044459        0.08271804662023
H            1.67151965918438       -1.06260857079908       -0.37023165850564
H            4.14273083725405       -0.57169746309039       -2.21536487930953
H            4.03502181551275       -1.83137156092606       -0.99108344140199
H            5.37073959309104       -0.68412851121967       -0.95464674166675
H            3.65941375560235        1.81657587296689       -1.66859083737882
H            4.92387900790552        1.78751420557467       -0.44744641828546
H            3.28943358361521        2.31821633577451       -0.02497585545994
H            4.51496589556460        1.77483969563648        1.73783263434451
H            4.93699699691155        1.23984038001058        4.08500756848943
H            3.08658732838577       -2.19218491667757        1.03349847317226
H            2.79351118323420       -4.41174976343930        2.41150118947651
H            1.01074622921179       -5.86371152831585        2.57162071145191
H            0.40729797277117       -6.10728995921586        4.20816747450015
H            0.68828825661136       -7.49335831831265        3.15465257975009
H            3.40820068620350       -6.53827188355236        1.97809140078846
H            3.12106352083394       -8.17137033067395        2.56721696358897
H            4.46038509776360       -7.22338894545892        3.21298985832350
H            1.86848461271017       -7.27149049274095        5.95319701087874
H            3.53514728385293       -7.71427997960918        5.55627734822650
H            2.19108712679123       -8.59040673463846        4.83720729129711
H            3.30098005647210       -5.68112976185894        6.46174144586491
H            4.08508383233150       -3.45611415245738        7.09430242730414
H            3.65812615894776        1.12013488352183        6.03190871863921
H            4.44944833765500        2.15876140445465        8.13607084186195
H            3.79341807029005        1.14836493361821       11.85540637165870
H            1.89322162781649        2.74865419057949       12.10932566224976
H            2.14034996080835        5.06384570294622        8.01361117737593
H            0.88799435902418        6.50394548651422        6.48847258404859
H           -2.96216862696172        8.18895458597373        8.18051736508619
H           -2.76949059358877        6.98550479336290        6.90915145318931
H           -3.17651778946783        8.65084098050463        6.49546401448481
H           -1.20366506732692       10.02445994563188        8.48273144216503
H           -1.39272322206232       10.50803875735647        6.80114225477735
H            0.20119272792745       10.07996786182875        7.42233822511088
H           -0.82217090596692        7.16783505274032        5.25734365787533
H            0.40189591614715        8.42756175839817        5.47280639704033
H           -1.22077418190993        8.85124431462390        4.94535089502231
H           -1.30804464359673        8.15558064769248        9.76301567906338
H           -1.42498762335394        7.83143100721152       12.36598458195517
H           -1.44892933009216        9.36370836748025       14.07048570569891
H           -0.14897566474223        9.16830801374294       15.24238445160386
H           -1.80509441487577        9.42059737320141       15.79350316401949
H           -3.17937634056197        7.50325361623222       13.75651700251569
H           -3.55190046453220        7.53123316006614       15.47622246729275
H           -3.06187386443175        6.02349398579439       14.70404885242784
H           -0.07889371392427        7.09980926268318       16.74526761883201
H           -1.26054378998049        5.80239008852610       16.51754625354026
H           -1.75976792415375        7.34491311237092       17.19744911092409
H            0.61845697539772        5.54241821702503       15.34209898798421
H            2.02520051538323        4.51268178612398       13.62924795179675
H            3.94381111635334        5.30791943318608        9.41298071094469
H            6.03281306793962       -2.25567142287909        7.02217432796380
