111
 energy: -21.059488806546 gnorm: 0.000892410400 xtb: 6.6.1 (8d0f1dd)
C            0.83229358561336       -1.85267834386863        1.23607066337988
C            2.14687329177643       -1.12216324680311        0.90888204134287
C            1.93067841629938        0.38988972618731        1.11226417587728
C            3.25197439456275       -1.58426860852605        1.87758782429926
C            2.56189584344993       -1.45196608324672       -0.53321973872692
C            2.62652412299205       -0.46721807769902       -1.53681841626709
C            3.00560367316031       -0.75882123279159       -2.82414307177425
C            3.34402656044410       -2.07062337670424       -3.14818690241310
C            3.26114880713986       -3.06994444680162       -2.16723398609506
C            2.87088352886704       -2.75690338256731       -0.86496825269245
C            3.62916695217845       -4.31711149034404       -2.79157701216080
C            3.70106610670069       -5.62176731897009       -2.30332181022750
C            4.08317894637497       -6.65095778885401       -3.14187380352419
C            4.15116642114706       -8.08199157602828       -2.58688484208877
C            5.17405887924264       -8.13235166400395       -1.43715748388797
C            2.76189739203959       -8.49060729136948       -2.06278573547555
C            4.58026659828869       -9.09610297426776       -3.66449568386683
C            4.39807862889068       -6.35025046498691       -4.48070026454811
C            4.33108450943016       -5.07186724529723       -4.97801291380853
C            3.93685780972013       -4.03895847807864       -4.13123195474621
N            3.77352640830164       -2.65607915973422       -4.35848759008553
C            4.02778441603947       -1.96547825768033       -5.60036234158837
C            4.63781959064810       -0.71591727764798       -5.60339023216643
C            4.83045412171201       -0.12045896683175       -6.82210478774240
C            4.42254494332505       -0.80410067612645       -7.93470421470252
S            4.67321357641413       -0.05108489501256       -9.56308640618744
O            4.13373912002715        1.35813616677875       -9.44674652559216
O            6.13705063422703       -0.25577388526712       -9.88613720665025
C            3.62048387956706       -0.84929230412435      -10.80180704964901
C            3.03322859702070       -0.09562410134826      -11.78043228880833
C            2.25362878446332       -0.74262086247716      -12.70382853552585
C            2.14374974997896       -2.12455173137047      -12.58653700593100
N            1.35765519621799       -2.88691007499296      -13.52684714794639
C            1.22970297806734       -2.64425196938477      -14.91163296524497
C            1.82918925012765       -1.70379353947728      -15.74654227043049
C            1.51168391054621       -1.69922351266039      -17.08258880775479
C            0.60513601932358       -2.61978155691293      -17.64058560143675
C            0.24072843470219       -2.60502932008039      -19.13316558800208
C            0.65373740716066       -3.94433687395159      -19.77012078438386
C           -1.27901750815221       -2.40592101928849      -19.28341061925160
C            0.95449780913095       -1.46667607942510      -19.88756632531496
C            0.03210212740565       -3.56767120746300      -16.81513252606524
C            0.34323971932459       -3.58618282234873      -15.45520133774559
C           -0.07501949870330       -4.45373090541020      -14.38132685499841
C           -0.92642095266451       -5.55842132426025      -14.34822333616378
C           -1.15178736850545       -6.21933750433470      -13.15609261000755
C           -2.08133932380003       -7.44252764585844      -13.14119584044979
C           -3.48700373089672       -7.01766544347591      -13.60363322667183
C           -1.52408952996408       -8.51600599283488      -14.09453325710002
C           -2.19765203051631       -8.05844225146032      -11.73357611245822
C           -0.51739929948414       -5.74734134801109      -11.99151229512356
C            0.32234679990063       -4.66105618896774      -12.00621995191401
C            0.55878639724110       -4.00700325385745      -13.21297813404505
N            2.77307523158459       -2.72501024140276      -11.57093368594953
C            3.45792903748123       -2.18032525386186      -10.68909171888281
C            3.85441896296793       -2.01309742137005       -7.90049940785175
N            3.68814622397035       -2.50783946377159       -6.77525303299682
H            0.50515651505111       -1.63138652235482        2.25153377012160
H            0.94888050293669       -2.93213214289040        1.15028655046630
H            0.04152353034388       -1.54621698357253        0.55210885384119
H            1.66098932722814        0.60562657513886        2.14572764476254
H            1.12538591578637        0.76128135548632        0.47954006842001
H            2.83768974148502        0.94899974992809        0.88453292709951
H            2.99499759724958       -1.33877917942739        2.90755055079265
H            4.19822187450276       -1.09876326246488        1.64108725600951
H            3.40524995354708       -2.66090444778974        1.82244482840910
H            2.36984106663372        0.54868833369164       -1.29573525977828
H            3.02675071693775        0.00229469654355       -3.58271113875549
H            2.81422372494589       -3.53972883431740       -0.13182145894148
H            3.45542864153703       -5.81159295145437       -1.27511074053911
H            4.88389569108309       -7.47381110292073       -0.61975748939670
H            6.15852611356221       -7.82063901057125       -1.78453393883993
H            5.26125298359098       -9.14180913472146       -1.03650463300267
H            2.43528278435100       -7.83821385377223       -1.25429772994813
H            2.77339495004208       -9.51145866310713       -1.68216346068132
H            2.01925121959092       -8.43513880001763       -2.85805241390749
H            5.57057712795669       -8.86090663204218       -4.05292499765549
H            3.87495966103129       -9.10817594719674       -4.49480552669206
H            4.62000441997427      -10.10389087389859       -3.25203074210253
H            4.70078175227239       -7.14238376584519       -5.14171418215118
H            4.57622017352927       -4.85799071226442       -6.00266321650856
H            4.96094976032306       -0.25614366121019       -4.68645402071796
H            5.28914877812746        0.85030596514459       -6.91794667927262
H            3.17946234633957        0.97205654609366      -11.80269852919792
H            1.72594739871873       -0.20995571147732      -13.47458770381542
H            2.54595993873254       -1.01085969308914      -15.34531916815264
H            1.97745847036971       -0.96732242513791      -17.71777363870330
H            0.13453345057916       -4.78084164799196      -19.30466045653608
H            1.72451076321030       -4.11020873270193      -19.65636712662828
H            0.42111698160389       -3.95805044234926      -20.83447037597993
H           -1.83370633694533       -3.21780102888630      -18.81540208524639
H           -1.56560816987701       -2.36943055253929      -20.33396768476617
H           -1.59275995433474       -1.47329360705850      -18.81560954868643
H            2.03692853982185       -1.57755415292047      -19.83348180717320
H            0.68353476660162       -0.49429374605601      -19.47757528627801
H            0.67678453927500       -1.46823199779609      -20.94122743703314
H           -0.65379641019862       -4.29569713574574      -17.20642991613920
H           -1.39663124343630       -5.88580293230783      -15.25668442471416
H           -3.46800131863787       -6.62549588258500      -14.61942389836707
H           -3.88747633954041       -6.24122008220855      -12.95265670379200
H           -4.17540991582483       -7.86199762602111      -13.58532088878392
H           -1.47747387117032       -8.15071048069636      -15.11937258893563
H           -2.15076219061277       -9.40728077213986      -14.08725727477192
H           -0.51749918506514       -8.80879918906309      -13.79768255075271
H           -2.60927980244511       -7.34159284136124      -11.02392649947756
H           -1.22592176133332       -8.38988472207561      -11.36895250278105
H           -2.85773125562092       -8.92533664932024      -11.74489496963942
H           -0.68983575050441       -6.24939422022732      -11.05649591615918
H            0.79652324493639       -4.31165231559536      -11.10695602021943
H            5.77920154042904       -2.66497968559096       -8.54743436013305
H            3.57761244843137       -2.33586693629809       -9.31745066804853
