126
 energy: -24.160976406359 gnorm: 0.000861673039 xtb: 6.6.1 (8d0f1dd)
C            0.04082315688420        0.05103152385301        1.12455752643757
C            1.49756630654701       -0.05519340606752        0.63827341014543
C            2.22889133010419       -1.08982776453219        1.51539373092609
C            1.52388691232085       -0.55168459578757       -0.81912393833098
C            2.16150695235972        1.32816525003030        0.71613163628999
C            1.62860675568565        2.38835320896355       -0.04039059377007
C            2.17703013220601        3.64676020712716       -0.02755014568335
C            3.29706018930494        3.87853399080549        0.76464870230455
C            3.84556573879551        2.83711777791368        1.52842743960893
C            3.27396252456464        1.56440503143649        1.50252221753173
C            4.99382881979075        3.37243008131313        2.22219084685034
C            5.89913797142214        2.80834779430288        3.12170256327581
C            6.91773649901749        3.57904879277170        3.64952760102206
C            7.89873214985859        2.94411079997333        4.64711929290370
C            7.11819555385919        2.43823375069337        5.87426652727702
C            8.62126587280618        1.76543641945026        3.96971034157615
C            8.96020260071292        3.95162204823749        5.12931403162758
C            7.01869333479446        4.92816275578151        3.25936664619886
C            6.13842620301366        5.50026051898005        2.37458535752300
C            5.11491224714584        4.71851623963760        1.84776342727975
N            4.07450064731862        5.03831759055465        0.95313716438331
C            3.86600405675234        6.31761061949350        0.33113766417116
C            2.68037613647610        7.01725540110570        0.52573136140759
C            2.50908422232533        8.26267676171747       -0.03906303668501
C            3.51109009331471        8.81418542253958       -0.80465963201226
S            3.28314892932715       10.44956233533653       -1.51211079760211
O            3.37116735918940       10.32530074000448       -3.01661150085141
O            2.13534341897465       11.11156808839107       -0.78260025899251
C            4.81829628569353       11.16429045182080       -0.91822909201150
C            5.84852175760283       11.38450397981636       -1.80305950582791
C            7.04616433342445       11.89854958950545       -1.34478815415435
C            7.19616262481618       12.18978666791492       -0.00846322387207
S            8.75693160388200       12.84572747831539        0.58574923230054
O            8.97834759524410       12.30931180118515        1.98363073843498
O            9.76639559823217       12.73872819383142       -0.53618853517502
C            8.26198225088778       14.56429557486599        0.72656995193620
C            8.10155400663281       15.12049411967779        1.97481410908633
C            7.72119003724110       16.43887633484080        2.09682566765314
C            7.49839216338160       17.21255596673414        0.96316454328007
N            7.10815424786832       18.58938197040668        1.08901023464062
C            6.00288222173733       19.20437467297405        0.46628571476243
C            5.03528508657018       18.69593625553120       -0.39553143610171
C            4.04140520810133       19.53116100754549       -0.84300009416410
C            3.96764749433786       20.88274261559635       -0.45564805957050
C            2.84937335958854       21.81338485248725       -0.94952663757618
C            2.03349838602657       22.30915423226002        0.25821982452224
C            3.47282380753472       23.01546377257296       -1.68292146972913
C            1.89270860203243       21.09634044345118       -1.92160440644197
C            4.92641670383126       21.37984021236340        0.40628932555934
C            5.94415442306754       20.54634211301009        0.87075468827212
C            7.04998233925684       20.77231898187632        1.77092417413087
C            7.47809123157110       21.90231307977509        2.46830428229371
C            8.59984489373047       21.83227122151362        3.27222083776642
C            9.05100793467729       23.08368960728240        4.04085691746816
C            9.35867083450389       24.21263048925483        3.04020333330544
C            7.92497227852326       23.52682376788203        4.99300331613382
C           10.31756459219271       22.81854033874079        4.87740244926956
C            9.29210012380068       20.60974190606813        3.36309068525837
C            8.88384059932814       19.48705080745149        2.68624671241355
C            7.74710566539680       19.56074819057835        1.88633764606077
C            7.66399522127628       16.63569966786840       -0.29124435950110
C            8.04586473413226       15.31674738317235       -0.40594953689886
C            6.16118820733909       11.98184651956665        0.87435572728429
C            4.96361862763630       11.46687064952621        0.41643114694010
C            4.68350053321197        8.12448501011299       -1.02089172776645
C            4.86475575929273        6.88327582127567       -0.45292140623063
H           -0.45078351522531       -0.92082468436213        1.09748900873285
H           -0.53603859797708        0.73330748030239        0.50213208790326
H            0.00348316391269        0.42014931624004        2.14884702018985
H            1.74772181483928       -2.06482612478891        1.44489737943864
H            2.21886037784601       -0.79242259115461        2.56337689759763
H            3.26426618730846       -1.20999786696040        1.19840649586870
H            1.07993148468663       -1.54317886357694       -0.90128813564751
H            2.54761484545957       -0.60879086507280       -1.18733567933830
H            0.96901176459861        0.11619783364277       -1.47610085019757
H            0.76371544135228        2.20426960590821       -0.65334666335127
H            1.76649697288820        4.44610721408016       -0.61788685858057
H            3.71735036432556        0.78687893433648        2.09483799441411
H            5.79050097490634        1.77627537390826        3.39816365991551
H            6.38923911648471        1.67913186500499        5.59487491154410
H            6.58207731682419        3.25708307843598        6.35268455925002
H            7.79067269587887        1.99925005217573        6.61046169381358
H            7.91720383932121        0.99577265312096        3.65734604999476
H            9.33780844455943        1.30514294911793        4.64916546637210
H            9.16211749226286        2.10293601507125        3.08630173318514
H            8.49687949090276        4.79782390370978        5.63532333199075
H            9.55251811050226        4.32688989198278        4.29559156106804
H            9.64539167573500        3.48230327682331        5.83453913782739
H            7.80644876359405        5.53745071805497        3.66438212552474
H            6.21986297692693        6.53339111622857        2.08802014395529
H            1.91037450615618        6.58036570554114        1.13718076801008
H            1.60159814536023        8.82267465786983        0.11633107067303
H            5.70856603925318       11.14370726226384       -2.84421884424574
H            7.87340553449143       12.06287123934960       -2.01561856077924
H            8.28214426826836       14.51246831301981        2.84589175491780
H            7.58244654466202       16.88244625662167        3.06715126517588
H            5.07352811428548       17.66247716018243       -0.68927353531341
H            3.29750894255109       19.13165439443242       -1.50852751685656
H            2.65660572245912       22.87066136820750        0.95272749817242
H            1.60099631056686       21.46907277854421        0.80055240483116
H            1.22011223263080       22.95983151194281       -0.06111863985034
H            4.11606301628510       23.59383065717855       -1.02156999821505
H            2.70041240315930       23.68330531198571       -2.06283338798059
H            4.07472868602934       22.68088508960069       -2.52705740908287
H            1.40180672418155       20.25222037923091       -1.43862418801720
H            2.42593268926261       20.73279576780392       -2.79925188488879
H            1.11363680054144       21.77503140725191       -2.26737471504357
H            4.89782138958712       22.40324843476042        0.73074033402827
H            6.92612909281153       22.81852513319843        2.37179513365285
H            8.47679504508806       24.47846537484884        2.45941278669023
H           10.13874060609110       23.90689101722485        2.34384115040351
H            9.69970949663121       25.10902830749073        3.55705845835783
H            7.01908665186119       23.78002171144733        4.44437163672948
H            8.22240417971663       24.40325612091828        5.56769912816014
H            7.67942661060034       22.73042347686406        5.69464463992473
H           11.15107132356127       22.51840107490666        4.24335154347819
H           10.14336934233985       22.03701388197553        5.61606606321879
H           10.62020745123576       23.71679795372781        5.41465742519724
H           10.16987706004057       20.54490900074059        3.98049792304217
H            9.42614682110422       18.56147577227986        2.75715608787817
H            7.50597808062719       17.23929693976287       -1.16777084052324
H            8.19048551583854       14.86704717950657       -1.37412619178119
H            6.30279235519635       12.21092829900568        1.91763643924344
H            4.14145693971924       11.29348456594078        1.09092745064542
H            5.45531978528177        8.56596424723131       -1.62856267440806
H            5.77788688215394        6.33541883223179       -0.60761684551116
