126
 energy: -19.787404985472 gnorm: 0.001914826797 xtb: 6.6.1 (8d0f1dd)
C            1.00892737135851       -0.52695973746857        0.87743637063449
C            2.46118426770410       -0.26500930205010        1.31700380513616
C            3.42905130285070       -0.73183451673795        0.21418157049619
C            2.64255447431124        1.25256868334425        1.51193955387388
C            2.75043387398090       -1.04699565789366        2.60754577225157
C            3.15919819918510       -0.40835043207194        3.79388552593183
C            3.42985794992363       -1.10757033138322        4.94442429069175
C            3.29208793215809       -2.49263864472741        4.93702320329093
C            2.89186373336762       -3.14946557797985        3.76389355013667
C            2.62097268585235       -2.42262122858304        2.60438519459112
C            2.87996920444052       -4.56495576408601        4.04692111348095
C            2.57553153088718       -5.67707046582053        3.26163543836960
C            2.66137382684248       -6.94606917302896        3.80165077375946
C            2.33342289212114       -8.15964677330204        2.91842143084137
C            0.88575397703028       -8.04141056125470        2.40728334669119
C            3.30434534399573       -8.19344610214505        1.72390064577689
C            2.46797406274851       -9.48571275259897        3.69144933767633
C            3.05620296912852       -7.08457432092208        5.14597563448134
C            3.36098972616335       -6.00165085254373        5.93321044504790
C            3.27785790252400       -4.72615586399824        5.38211724494327
N            3.52985514299835       -3.45583825045486        5.93895740011179
C            4.04180205244444       -3.20084575373296        7.25665393258850
C            3.43344052988271       -2.27116536612002        8.09218985716899
C            3.94526729150963       -2.02414329981322        9.34821975609913
C            5.06447171649053       -2.69718895855141        9.78279341765404
S            5.69501052849545       -2.33160374799261       11.42688482133404
O            5.54744453487848       -0.84783689604890       11.69785598430257
O            5.04238724270032       -3.30821350716533       12.37652305442104
C            7.43527311195996       -2.68011052301657       11.16683258994020
C            8.09884411905658       -1.75721591191885       10.38292539550604
C            9.38354875175412       -1.81017670203989        9.85204836106901
C           10.22335218940762       -2.86437503160438        9.74560323423669
C           10.12762430007445       -4.20534536466788       10.02716760017326
S           11.19021799114634       -5.09749490914954       10.78716109294336
O            8.14318797724645       -5.09827564103097        9.03922033468110
O           17.39075514849922      -14.34651962021825        5.74191537941131
C            9.36353389912915       -6.76210483077010       11.88676155922983
C            8.23544638586886       -6.92880986711729       11.18868926083977
C            7.01918686295532       -6.82606236000166       11.76074948619435
C            6.82849800106452       -6.41428432737404       13.02071690789600
N            5.76606155173442       -5.93276925712312       13.47358933072753
C            5.69562362040687       -5.16355154715057       14.52161796334116
C            6.71139283326569       -4.75214023498847       15.30255760271129
C            6.59618507086237       -3.77128010343154       16.23269085858656
C            5.45661290031634       -2.93090710274419       16.43909824509451
C            5.15351493657979       -1.99992917775289       15.30837267046888
C            0.84371209584536        5.86071627524935       20.77157069170861
C            5.35292076737268       -2.34372352544731       17.77454171130164
C            1.20365491209181        2.66308576705322       18.76968403660456
C            0.47989264313787       -1.69403022733267       17.74886833410321
C            1.49110226806498       -2.52906948337778       17.89015217681775
C            2.08336716138371       -3.25330050857757       16.94188208303519
C            1.77285083866026       -3.30054768743599       15.67081682114517
C            2.43284718576389       -4.08044816315318       14.66565569644851
C            2.33731725449658       -5.53148889543078       14.83379634039145
C           -4.58455131092830       -8.68105386864484       18.78551549806994
C            2.26692331824863       -3.59902711751914       13.29298455390731
C           -3.42910768324225       -6.44738408897210       16.08910620500084
C           -3.28361166678540       -7.68167981561145       15.61169773684055
C           -2.13607531011935       -8.15048680730087       15.16659673432319
C           -1.20455519906869       -4.90080914270979       13.49362587052700
C            8.32012191379371       -8.03131953124659       14.69619383275897
C           13.54726954457347       -6.18826017860590       11.95176242459739
C            7.95345874801111       -3.77178558612105       11.72661192456852
C            5.67336457737312       -3.62397500114696        8.96444270884708
C            5.16911722083058       -3.87469591577773        7.70928712658489
H            0.76879675058455        0.03084342556604       -0.02707446378759
H            0.31069228633388       -0.22335649653803        1.65662824721324
H            0.84134522639491       -1.58290643570496        0.67103602822378
H            3.26153871012594       -0.18108107541289       -0.71077701488452
H            3.30205984712709       -1.79160700861674       -0.00157386449259
H            4.46324340930758       -0.57432004383680        0.51838284622032
H            2.42709823162089        1.78875676362597        0.58822920151393
H            3.66575185780227        1.49201953520369        1.79922177266879
H            1.96809100939695        1.63306106296155        2.27818443465001
H            3.27011818700220        0.66098569711318        3.80586036202428
H            3.75548864721747       -0.60967828870500        5.83985539456457
H            2.32259591531227       -2.94571143394691        1.71511781429545
H            2.28074541312616       -5.53233223157328        2.23909254445065
H            0.75006733360775       -7.14516804232406        1.80390839285091
H            0.18638694412788       -7.99244636568565        3.24115537689302
H            0.61817534101967       -8.89993751586994        1.79225207917509
H            3.20971659391366       -7.29818736842332        1.11124841146388
H            3.10934547400617       -9.05542177585558        1.08683272413355
H            4.33590388001085       -8.25496491451688        2.06883345578638
H            1.78785535244531       -9.51486342644954        4.54196880957033
H            3.48525313239264       -9.62691644963559        4.05473879647233
H            2.22822143755852      -10.33272401799084        3.04944007088985
H            3.12554342953627       -8.06701183307554        5.57712732359644
H            3.65793317037552       -6.12034203892103        6.95973450509120
H            2.55493530196384       -1.75508530276282        7.74650515256962
H            3.48263106486687       -1.30101902058668        9.99933205535569
H            7.52041001747009       -0.87529140867422       10.14361117099442
H            9.74615150142847       -0.90016059040970        9.39695560553532
H           10.32869349902417       -6.63763416391626       11.45179355408550
H            8.28560797723073       -6.96500976829660       10.10909516355171
H            3.85645290510740       -0.12979014343784       12.73952570478141
H            7.68545716190824       -5.17664984158839       15.12513209887153
H            5.93060688048261       -1.24254890761306       15.20686297280190
H            4.20147213658344       -1.49397407499363       15.46592395078111
H            5.09129057492809       -2.54298667226565       14.36521338602862
H            1.16102951190959        6.70149334826729       20.27755820480429
H            2.93054850966980        0.03826465225877       17.15931404067575
H            1.49889837855519       -0.50085281084801       15.07723875364381
H            5.34320147695745       -3.09083515210114       18.54215875589613
H            6.60334943219919        0.87804180561521       12.20910179339570
H            6.13626109649747       -1.63924277217508       17.96876633523041
H            1.37804957185743        2.95574931999171       19.73409514090521
H           -1.36846383964282        4.49269692404681       19.14658238959978
H            2.22269915205602       -0.08763329939051       19.84127990217887
H            1.34202064951135       -5.89218339078665       14.67084786714608
H            2.68332831287169       -5.85040567935089       15.79622398211761
H           -4.14813738585758       -9.20724703167360       19.54883808495092
H           -0.48299370919919       -5.11574053664645       16.73819024079717
H           -1.03533209713700       -2.89447776192987       15.57004401337823
H            2.43806091247637       -2.54446853939052       13.21761648430029
H           -1.56642191517217       -7.69090367512093       18.18489098056737
H            2.93006146989163       -4.10067714758482       12.61697970631500
H           -4.33401976105457       -6.05644297398202       16.45406941827901
H           -4.13715882987088       -8.34054809728890       15.59127282097885
H           -1.71920751713305       -5.56133665932466       14.07959578676138
H            7.80561915603386       -7.44086327491490       14.03163225138431
H           12.72797426500673       -5.75696735301793       11.46186012386593
H            7.39618754675026       -4.48768345161348       12.26085116334914
H            6.56246428656874       -4.14307184627325        9.28416864901679
H            5.65912357400205       -4.57843328633959        7.05879621686221
