52
 energy: -11.531916126183 gnorm: 0.000659052072 xtb: 6.6.1 (8d0f1dd)
C            0.96425900594205       -0.05416848953673       -0.01613016065803
C           -0.25947463164530       -0.03768811086703        0.03785661216017
C           -1.65333353231781       -0.00199922751362        0.08374576082507
C           -2.32746574926980        1.23162260804267        0.18726780607651
C           -1.61150282350948        2.45477944493313        0.25996547423744
C           -2.25653408777771        3.64518078261549        0.38136099774842
C           -3.65612890036941        3.68712686382238        0.44149562838430
C           -4.38198633603880        2.53929195540992        0.36904183240841
C           -3.75566533024294        1.27516703230666        0.22863467909438
C           -4.51251021593952        0.08187490551275        0.15359917313008
C           -5.99595482396592        0.12870386793125        0.17400084279474
C           -6.70742680771126        0.79619183902765       -0.82822448345109
C           -8.08264874097954        0.83769521466179       -0.80911997665026
C           -8.78123095620167        0.21322593468079        0.20562045241144
C           -8.09871842451430       -0.45332493211330        1.20453064964077
C           -6.72335342094680       -0.49542643366034        1.19254828561629
C           -3.83493723539421       -1.16823593186623        0.04809764664196
C           -4.54081426754061       -2.36911881497839       -0.05615120407981
C           -3.89735294126969       -3.59787492685367       -0.16634434951883
C           -4.61590229862972       -4.81941001085545       -0.26528069658870
C           -3.95848919637735       -6.00344564932811       -0.36733010685716
C           -2.55101249153104       -6.04373428576687       -0.37855532201353
C           -1.82523107384374       -4.89931680582699       -0.28903722310425
C           -2.47107365887720       -3.63837374594664       -0.17973061880370
C           -1.75908782349938       -2.44701584431733       -0.08886714463940
C           -2.39951084147107       -1.20868400267757        0.01870966197728
C            2.36791311568085       -0.05407280582567       -0.09893089950471
C            3.07696102640449        1.14342366170975       -0.12570604666091
C            4.45274132860120        1.14513342404819       -0.21473930016170
C            5.14320434505096       -0.04832303155233       -0.27817307270851
C            4.45506032464775       -1.24460926879145       -0.25214770041893
C            3.07913082689145       -1.24884059086398       -0.16343838676377
H           -0.53657846854619        2.42804745251662        0.22018996714147
H           -1.69275120082286        4.56214821235529        0.43529853708286
H           -4.15627999478930        4.63605124774667        0.54656608172058
H           -5.45484710383269        2.58283670509130        0.42918255257135
H           -6.16096375533052        1.27230906791040       -1.62429290185712
H           -8.61564231676159        1.35749827494791       -1.58850658078358
H           -9.85848900087386        0.24584873660446        0.21773240817926
H           -8.64477758030169       -0.94012127267264        1.99608176039474
H           -6.18899415141559       -1.00370329829967        1.97686864609682
H           -5.61443692541795       -2.34998220952574       -0.05941532403886
H           -5.69191505266895       -4.79206008735052       -0.25741795369891
H           -4.51555425382930       -6.92318278889873       -0.44023179949260
H           -2.04931573402759       -6.99410580858255       -0.46013784299884
H           -0.74944646593247       -4.93363460414949       -0.29973217437242
H           -0.68534306463274       -2.48155465606560       -0.10714769791040
H            2.53406358508471        2.07211158832260       -0.07768211885262
H            4.98928483552301        2.07969356378955       -0.23580897427756
H            6.21873772715311       -0.04600235426814       -0.34875676523581
H            4.99380332667906       -2.17679775861821       -0.30209848252501
H            2.53810223135387       -2.17966463632649       -0.14457014766677
