112
 energy: -21.669817443403 gnorm: 0.000211115335 xtb: 6.6.1 (8d0f1dd)
C            0.05076239996851        2.34401218010663        2.81449175041086
C            1.04504213542041        1.82823738657744        1.75763222773782
C            0.40727806049174        1.91791345737065        0.35903250955632
C            2.29159747796299        2.73332830322696        1.78276676482221
C            1.39476386373580        0.36277795009481        2.05935047254017
C            2.71789084398856       -0.06137209733908        2.28360168914224
C            3.03175903203222       -1.37493410946640        2.53554550515737
C            2.00767490342724       -2.31696289170999        2.56825992867050
C            0.68113493263398       -1.91218124815642        2.35774371725210
C            0.38074807507143       -0.57577840141454        2.10003690120013
C           -0.14851002086007       -3.09167897383636        2.44087027487770
C           -1.51863933109261       -3.28798185198274        2.27146392328262
C           -2.04851924654978       -4.56224030292986        2.35784529033345
C           -3.55745044995081       -4.76452635937490        2.15115731288091
C           -4.33121030771734       -3.92857834461318        3.18716721058769
C           -3.93805080167313       -4.31184747677877        0.72974613151606
C           -3.96706707679755       -6.24080610749927        2.31735593781399
C           -1.17988381726073       -5.63968434526941        2.61078059039850
C            0.17148961696385       -5.46361067638574        2.77897210212921
C            0.69874372518863       -4.17749582597980        2.70312503313167
N            2.02885509199555       -3.71081851964999        2.79020660748659
C            3.18715510579818       -4.54499702259783        2.92182307580185
C            3.21964852062171       -5.57438073643214        3.86149500239713
C            4.26926732637666       -6.45783029117889        3.89193207181298
C            5.31988383387865       -6.34371135522822        2.99106859719977
C            5.32171232532765       -5.28403852246559        2.06980957641204
C            4.25732170089970       -4.40305052492940        2.04994891518119
C            6.41624964021834       -5.12268751509088        1.09777388058441
O            6.46114931214664       -4.15002835067055        0.36707488166201
C            7.43027162277885       -6.18275738608452        1.02288781068717
C            8.40495754598438       -6.15017241892182        0.03287765307418
C            9.30471422027445       -7.17903007017294       -0.10403652584145
C            9.25675581082501       -8.27835025730432        0.75234958141074
N           10.07486351719425       -9.43372293996662        0.52424164030527
C            9.58660641833697      -10.75511214985853        0.43120660165090
C            8.29823049909515      -11.26580827886276        0.56116895861540
C            8.09473688491377      -12.61081150790460        0.37537168229304
C            9.14609809364628      -13.48832060130363        0.05269876199451
C            8.91214341205862      -14.99032088034071       -0.17024704523236
C            9.30613757987988      -15.35531185765940       -1.61312936003029
C            9.77291802150743      -15.79299830567371        0.82234943925951
C            7.43642728367046      -15.37959087192383        0.04349965843913
C           10.42295356039071      -12.97471932033825       -0.08249333702860
C           10.64720271273187      -11.61095836302913        0.10333873593845
C           11.83507707533015      -10.79594717842919       -0.00621729500449
C           13.15956486707502      -11.11117362075709       -0.30428128730992
C           14.11391464481723      -10.11184207190756       -0.34145040652171
C           15.56829256771967      -10.48000665458826       -0.67353410165050
C           16.08452081366593      -11.49901609219936        0.35938965225514
C           15.62546599634034      -11.09718584027063       -2.08298112181778
C           16.49399613479291       -9.24882625559216       -0.64356558275953
C           13.71734092443665       -8.78774204517228       -0.07555741972671
C           12.41561520420608       -8.45902760432521        0.21647952282819
C           11.45854441855496       -9.46870318288972        0.24890454796015
C            8.31411361032253       -8.29001197558305        1.76966423036546
C            7.40054368168948       -7.26534184412450        1.91598080958533
C            6.38347869077216       -7.35461756481131        2.97529928927520
O            6.41208604839532       -8.25741297835258        3.79166903308913
H           -0.19941499783777        3.38955495652132        2.63686255233239
H            0.47621872241498        2.26387612735325        3.81433606064930
H           -0.87682645110167        1.77362565740332        2.79886437792109
H            0.16096133687977        2.94911146678511        0.10763006599284
H           -0.50998340154063        1.33326940698018        0.30409440552166
H            1.09088623062129        1.53917170920496       -0.40018980130134
H            2.02141876905944        3.76813408542563        1.57381065026976
H            3.01616610561054        2.42495204535885        1.02980886324098
H            2.77375339255621        2.70978312073079        2.75953319046009
H            3.51481084215560        0.65986317010152        2.25630501681040
H            4.04679618874733       -1.68410362463343        2.71025004093076
H           -0.64059873192472       -0.29117972238546        1.92844146036578
H           -2.14807392937925       -2.44318936943219        2.06244227895729
H           -4.12292077922850       -2.86557215735471        3.07503752373399
H           -4.05396755937538       -4.21921437436060        4.20001206741551
H           -5.40605323858792       -4.07008306162101        3.07769450459063
H           -3.71548719629031       -3.25662639920713        0.57770938888096
H           -5.00180244313426       -4.45867771742769        0.54504902514519
H           -3.38409796833637       -4.88111761963814       -0.01612898454270
H           -3.72063345082204       -6.60643938545373        3.31374107513841
H           -3.46876553308685       -6.87214100368898        1.58234259492197
H           -5.04112535559272       -6.36155014452929        2.17860393668390
H           -1.57803812801863       -6.63671934424842        2.66922966303746
H            0.82534128739055       -6.29998099663688        2.94816306311194
H            2.40570321037186       -5.66904671440086        4.55874075030310
H            4.28856480944866       -7.26880628168217        4.59990516974527
H            4.24586075622804       -3.62369536147333        1.31017305425945
H            8.41848062827087       -5.31193131022094       -0.64266296077037
H           10.02782026137496       -7.17096573865715       -0.90052659985866
H            7.48237163389538      -10.60526538615494        0.79360514056963
H            7.09650989994905      -12.99678285299499        0.47807187752649
H           10.35880411702578      -15.14820029851796       -1.80051104397354
H            8.71959623895007      -14.78003185547093       -2.32887740998903
H            9.13428847965596      -16.41333962722429       -1.80880536725589
H           10.83417831927316      -15.59818835868203        0.67494213138311
H            9.61115589838099      -16.86372612778241        0.70132643534841
H            9.52325570668823      -15.52779916179045        1.84924280304586
H            6.78651478671291      -14.85610326357020       -0.65701424771119
H            7.11251430034485      -15.14794860160866        1.05768656704477
H            7.29253284252609      -16.44850448555967       -0.11179894948413
H           11.24822704193997      -13.61220315658558       -0.33955852732679
H           13.42381446976551      -12.13310373961833       -0.50282446136602
H           15.49874526724049      -12.41686776488554        0.33862515044044
H           16.02703428398274      -11.08815982531198        1.36687116413523
H           17.12290134496624      -11.76318148476518        0.16124352978311
H           15.02540986090375      -12.00413943347074       -2.14265648274978
H           16.64849048989742      -11.35606482689808       -2.35441812843053
H           15.24618584478400      -10.39589200483482       -2.82562042107937
H           16.49611573271374       -8.78365508383281        0.34169319873576
H           16.18397981622287       -8.50623804051800       -1.37807963880865
H           17.52031832799995       -9.53199128428649       -0.87590876243175
H           14.45177144342488       -8.00280703454659       -0.09827386320906
H           12.12724798210472       -7.44504499652349        0.42875773588606
H            8.27355375898928       -9.11983003090104        2.45167712619856
