76
 energy: -15.160963062116 gnorm: 0.000919285375 xtb: 6.6.1 (8d0f1dd)
C            1.17579614096580       -0.05586541735628       -0.22229626450776
C            2.71114898801482        0.05735402616190       -0.19432700753529
C            3.20896033064276        0.01416251597493        1.26206919469830
C            3.30118817563690       -1.15240579160247       -0.94453588723548
C            3.13218484768622        1.38741004382345       -0.83822107764524
C            2.68794819721078        2.59531157830091       -0.26824369974951
C            3.01065665456092        3.81862740017166       -0.79931414587659
C            3.80584875456233        3.86179309315288       -1.94028181156423
C            4.26095636112822        2.67099382486833       -2.52672135263430
C            3.92232544035170        1.43618294113412       -1.97151939968630
C            5.02537509213557        3.03541014459239       -3.69549169634608
C            5.69947005646441        2.27821165853945       -4.65407861080243
C            6.35387539678387        2.90900449589883       -5.69471050981279
C            7.08482854454278        2.05874140278323       -6.74532541439504
C            8.15436411353866        1.19645455537848       -6.04964128333838
C            6.06683249497262        1.14889817245526       -7.45671252676826
C            7.78229167860181        2.93154080473466       -7.80651828894208
C            6.32068182150164        4.31537109661871       -5.76391748899420
C            5.66043670450803        5.07695925005869       -4.83233301211882
C            5.00468321780774        4.43531756115250       -3.78605702779693
N            4.26018119145142        4.94911003736113       -2.70872077792154
C            3.92371320465308        6.33223551572694       -2.49600156562100
C            4.42029836762005        7.01717950945984       -1.37324808839319
C            4.11227695393364        8.33089305796354       -1.14205270730763
C            3.27960777536981        9.00500616909500       -2.04072303208438
O            2.82308631959895       10.31179987143244       -2.03360990233050
C            2.01744568633592       10.48080515742932       -3.14665618151432
N            1.37749508574192       11.59587172028346       -3.50577911930960
C            0.65627994058867       11.48615806383796       -4.62382264983638
O           -0.10317963632813       12.47902633774180       -5.21747439316361
C           -0.68685792389607       11.94066963221472       -6.34867419670526
C           -1.54230676905190       12.52131329941980       -7.28913229523494
C           -1.99506112293114       11.76789528254004       -8.34200052915890
C           -2.93587516860718       12.37335471019277       -9.37040907713490
F           -3.00097496634122       13.70866238500425       -9.18086021791010
F           -2.45910908662643       12.10013925331627      -10.60437784478029
F           -4.15605878659245       11.81782091590436       -9.21093770367197
C           -1.61658487489047       10.43045254393989       -8.48011731757789
C           -0.77863161240615        9.83444334887387       -7.57323635537883
C           -0.31030042702213       10.59325374245779       -6.50154829833577
C            0.55265583088633       10.29495898689897       -5.39971488299700
C            1.21909862370164        9.14375321326493       -5.02998794128254
C            1.96484671813308        9.25635045266522       -3.87425512727531
C            2.77768823521452        8.31832484584404       -3.16178221064138
C            3.10279349372398        6.98524154103599       -3.39310091510142
H            0.84634653601054       -0.99975445637644        0.21015077783173
H            0.80522627811437       -0.00583198147410       -1.24536236951279
H            0.70863395353857        0.74964353681129        0.34176298079606
H            2.94221823998790       -0.92918224495196        1.73692710970338
H            2.77499843580819        0.81808383560749        1.85411369648178
H            4.29261761856323        0.11705543558320        1.30128525134437
H            2.99648967556370       -2.08559296779474       -0.47227471704068
H            4.39001401504704       -1.12213444147370       -0.94210649378912
H            2.95687280101500       -1.17936560070653       -1.97756367290791
H            2.06977169629016        2.55729368849069        0.61132833632182
H            2.65906847069272        4.73495294868287       -0.36016210034236
H            4.27883381262595        0.54131703077451       -2.44453686355583
H            5.69853013722828        1.20751720930779       -4.57239792712415
H            7.70720860027262        0.51508154977665       -5.32786635222011
H            8.86903328915868        1.82429978118876       -5.51910040009551
H            8.70438478572379        0.59799596891961       -6.77479557284117
H            5.58190009683712        0.47303029303420       -6.75426291064183
H            6.55219463246187        0.54344492747622       -8.22114074410872
H            5.29138903518479        1.74297474872432       -7.93865803275761
H            8.52122298180961        3.58865659229601       -7.34978558137679
H            7.06149722958498        3.54226041053263       -8.34853415452577
H            8.30063628603961        2.31089706415330       -8.53645529056659
H            6.82595125066120        4.81626877807989       -6.56974620905547
H            5.64128630849030        6.15039013419860       -4.89291514937949
H            5.06024375762303        6.48236620213550       -0.69347673094283
H            4.49447697135420        8.85828696047256       -0.28687678333148
H           -1.83924411329830       13.54924386570426       -7.18721373929466
H           -1.99869965692932        9.87661579754053       -9.32098626365082
H           -0.48173310182454        8.80571109152942       -7.67579238697824
H            1.15747164915025        8.23192472040184       -5.59330214491445
H            2.71494826330978        6.46715617060043       -4.24988491980975
