101
 energy: -19.239775361724 gnorm: 0.000553566350 xtb: 6.6.1 (8d0f1dd)
C            0.95229711736040       -0.18039375843045        0.54576186842544
C            2.45982404804840       -0.12168431191758        0.23634054750494
C            2.84793703187019        1.35011781839737       -0.00385176007561
C            3.25826210491715       -0.64356936525280        1.44507220988443
C            2.76351326410966       -1.00126118703120       -0.98631030979973
C            3.36014132377216       -0.48214128030501       -2.15160908096795
C            3.64162501327314       -1.26983892211832       -3.24066430146591
C            3.32704859146850       -2.62412361341303       -3.18789899044085
C            2.73442586901152       -3.16278587910737       -2.03697812888515
C            2.45563762082750       -2.34796019881291       -0.93971718854056
C            2.54715809026388       -4.57478923333615       -2.27260078265956
C            2.04154197526931       -5.60068160778695       -1.47420096619268
C            2.01114540645885       -6.89604563701501       -1.95538437733033
C            1.47036601889048       -8.01597529483209       -1.05292253460904
C            2.32990700698671       -8.09821174384764        0.22234853778521
C            0.01030668837964       -7.70563050788106       -0.67457333570165
C            1.50920412317261       -9.38792776036946       -1.75332659740133
C            2.49334254599227       -7.14819976428703       -3.25450424765241
C            2.99466303524029       -6.15019883320598       -4.05407607373687
C            3.02372242299706       -4.84881371921989       -3.56277750884303
N            3.50163897623699       -3.65285993960817       -4.13536249320371
C            4.14419250471726       -3.52840854889227       -5.41707255913980
C            3.41132295224276       -3.71853942199204       -6.58165528624849
C            4.01013977237249       -3.59807533093283       -7.81598840241709
C            5.35108355800781       -3.29658989792863       -7.90510210192994
C            6.11631900905092       -3.11521209108381       -6.75978917955128
N            7.52337953869573       -2.84127308479705       -6.87742899505736
C            8.57028980716910       -3.64904387795525       -6.38822423959683
C            8.54801611157602       -4.85231682522800       -5.68953588849084
C            9.73977352271263       -5.43779301941156       -5.33979860540793
C           10.98176532189938       -4.86155258640810       -5.66894397266457
C           12.31492547986540       -5.51486913809091       -5.27337006747692
C           13.13362837128612       -5.81118048512087       -6.54362828253845
C           13.09992670143709       -4.55276756831055       -4.36276150184636
C           12.10291132949813       -6.83846718945728       -4.51334133979835
C           10.99741860359321       -3.66743104711217       -6.36482138853782
C            9.79588260918117       -3.05819524042605       -6.72669963380630
C            9.50058085173321       -1.84088058705288       -7.44390920963680
C           10.31951563126512       -0.85897437324591       -8.00119318608597
C            9.75359863783523        0.23016034376889       -8.63647305791469
C           10.67255074374310        1.30507945146037       -9.23751052944301
C           11.54160408917993        1.91259741204346       -8.12059796833905
C           11.57665909685654        0.66195786585220      -10.30541303755867
C            9.87077858331759        2.44160192605457       -9.90061689287720
C            8.34976704428768        0.31978934082780       -8.70635029376456
C            7.52856722504122       -0.63847087045754       -8.16389897401218
C            8.10466002503284       -1.73267800892721       -7.52577370357656
C            5.51060673120447       -3.22325402934782       -5.49930949815838
C            6.25792737737535       -3.03387932368335       -4.33194108867939
N            6.87507122839764       -2.87958598684339       -3.35913024532916
H            0.70443020358346        0.45124955628664        1.39853730373418
H            0.63436687408824       -1.19533349588034        0.78054994816891
H            0.37038847819620        0.16348504207965       -0.30900706968486
H            2.61875484653648        1.95770482189046        0.87142259716654
H            2.29918492557584        1.76796455262828       -0.84750304315008
H            3.91522899252458        1.44758421069932       -0.20062754379640
H            3.07914542500964       -0.02841950091767        2.32657756679510
H            4.32725511660130       -0.62909050820175        1.23416959865951
H            2.98025953419253       -1.66762179190599        1.69084947385875
H            3.61198414301583        0.56223926131362       -2.19529389447220
H            4.11018434275917       -0.86844275504985       -4.12167981639575
H            2.00772940648539       -2.78093770574265       -0.06471887503591
H            1.68974891180988       -5.37146476533332       -0.48555372581391
H            2.29175733710124       -7.16740766988533        0.78672659493325
H            3.37207165037089       -8.29435993425861       -0.02843814093383
H            1.98336804119654       -8.89845087455945        0.87587753653186
H           -0.06643423107344       -6.76817502733496       -0.12533768715410
H           -0.40583952700106       -8.49367058239009       -0.04731263418699
H           -0.60906148414379       -7.62225770081294       -1.56726286591915
H            2.52898113307306       -9.66319846186260       -2.02115112547069
H            0.90104940662689       -9.38445586490461       -2.65751850136708
H            1.12012061457770      -10.16708166757549       -1.09806707741919
H            2.47613030470364       -8.15273585305349       -3.63760535853195
H            3.36957044560152       -6.35326204630925       -5.04148122690319
H            2.36441204571905       -3.95419645804744       -6.50093284775736
H            3.43014768477964       -3.74333447974258       -8.71266477017589
H            5.83029689935140       -3.21160501693285       -8.86490648684131
H            7.60392781251336       -5.29278160331563       -5.42222010774991
H            9.71537466298710       -6.36305341262479       -4.79265902888541
H           13.36182185646227       -4.89741517562306       -7.09073549878490
H           12.58173747945863       -6.47214777342749       -7.21150227326661
H           14.07810630578744       -6.29465445964955       -6.29496983325664
H           13.32688393391377       -3.61886202265009       -4.87526464014277
H           14.04330582700375       -4.99712457544027       -4.04631392506283
H           12.52306696183438       -4.31249274359521       -3.47005335395140
H           11.56155726173728       -7.55988444441574       -5.12485823685527
H           11.54542139543181       -6.67647698849420       -3.59120971826651
H           13.05917263861821       -7.28697098470421       -4.24465359944761
H           11.92557909453709       -3.19741956020217       -6.63189674783685
H           11.38618687137171       -0.96005248836744       -7.92553321993774
H           12.17395159475013        1.15766346506794       -7.65522549888045
H           10.91693431490511        2.35113969916261       -7.34283480807008
H           12.19102398706321        2.69472361276101       -8.51319508861951
H           12.20782301142476       -0.11452430665477       -9.87515301464796
H           12.22891965711524        1.40524285558403      -10.76334607552578
H           10.97728016276440        0.20722512027336      -11.09373382013522
H            9.22788774647444        2.94228727239890       -9.17712393386458
H            9.25106749160538        2.06278796252085      -10.71295038993915
H           10.54017029933281        3.19234170623569      -10.32031471890811
H            7.89918919894208        1.16428124667041       -9.19623192999245
H            6.45738817958249       -0.55717075361981       -8.21546382302053
