101
 energy: -20.167141009039 gnorm: 0.000630287114 xtb: 6.6.1 (8d0f1dd)
C            2.77280907621076       -0.55188594664003        0.94860205161693
C            4.05441332139029        0.30148127305221        0.96499786682103
C            5.19826438598595       -0.55230166143401        1.54602790003375
C            4.43030519735844        0.70171159084489       -0.47345806067940
C            3.81086829230525        1.56948580051316        1.79782664483887
C            2.79565740219214        2.46235461873984        1.41124138341105
C            2.52605685046370        3.61318516901784        2.10923134344677
C            3.28673476886417        3.91813518825164        3.23779476160427
C            4.28987507005115        3.02700772625950        3.64587527472200
C            4.55242544680386        1.86055988770800        2.92676882199115
C            4.84969960174764        3.54729905875954        4.86432711197049
C            5.83111326475010        3.04767956530607        5.72187812616588
C            6.13633980246429        3.72651044124642        6.88445268950198
C            7.20429540995667        3.16809131972569        7.83632932364866
C            6.75907654618537        1.78353834641794        8.34002817734230
C            8.54191914827401        3.04537828066582        7.08445350135993
C            7.41589858601248        4.08373469984253        9.05763245711157
C            5.43402344973632        4.90716590964578        7.17024661379086
C            4.47618444486817        5.41574927700658        6.32992012399120
C            4.17062146818712        4.74025885699870        5.15850990111471
N            3.22818906143673        5.00518442423020        4.14371178669758
C            2.35126352017047        6.13557819437588        3.95684510249899
C            2.13676816962572        6.57820393661548        2.65881914039688
C            1.07296772583738        7.39260715350526        2.35122676043707
C            0.18282606875751        7.75498614773356        3.33907389624073
C            0.38988544185878        7.39842908743922        4.66238746335535
C            1.54106775951879        6.66701212610194        5.00112586317904
O            1.92996882209663        6.49247606297896        6.32734247393159
C            1.12865799216349        6.99092396361798        7.35180313999615
C            1.63180484713849        7.01035240138649        8.68183331785722
C            3.07939755033526        6.96394637782591        8.96580700294790
N            3.46810352576702        6.36703625606250       10.08125990796790
C            4.76510612497747        6.44763432508604       10.32904887915709
C            5.26711540237426        5.76415812152865       11.52887093390359
C            6.60257392893746        5.87647522715843       11.90392826501662
C            7.07722806243773        5.21466861306452       13.01426244761889
C            6.22573154728933        4.43194851577136       13.76935063263888
C            4.89683457639177        4.31371115554321       13.41142978779392
C            4.42090404735701        4.97449321479226       12.30091029068878
N            5.65285964478315        7.07327804960095        9.57296723159993
C            5.14791227966792        7.65819484522970        8.49971417094170
C            6.08203434676645        8.31623464902515        7.57722199118892
C            5.61965483447509        8.87967043393208        6.39174040687646
C            6.49587631957515        9.46346007553194        5.50475357810318
C            7.84778838737067        9.49182248080389        5.78696414793349
C            8.32124767577295        8.93433366591734        6.95892612693151
C            7.44625469930491        8.35033021549000        7.84754585447172
N            3.87500285359158        7.62833929525622        8.14403912073000
C            0.75700410708278        7.23572631874238        9.73813227725831
C           -0.56308828655217        7.53259839881251        9.50543335442279
C           -1.01822080852257        7.65973544948704        8.20723890557369
C           -0.18939797959952        7.42191689086345        7.12392201739575
C           -0.68235851005412        7.71444878831296        5.70788367720466
C           -1.05273042236110        9.20974510368826        5.62572127260211
C           -1.91706101636943        6.84300590287679        5.41175393885108
H            2.92286934667831       -1.47006454098276        0.38132769773751
H            1.94269518301452       -0.01271839121236        0.49450560567439
H            2.47989220082029       -0.82560353734107        1.96177375308629
H            5.35916903324826       -1.44509602605403        0.94222517590408
H            4.96841475941172       -0.87812251011759        2.56006100378292
H            6.13396943019182        0.00570123623964        1.56435728901085
H            4.62964054860763       -0.17866795115667       -1.08385757381662
H            5.32427563091284        1.32467748219782       -0.47808080132667
H            3.62866199919858        1.26329034661330       -0.95102369966544
H            2.20738196718021        2.23168584106542        0.54024036843178
H            1.72292974959693        4.26268696120786        1.81223426031724
H            5.32693689233876        1.20268850758001        3.27253199479162
H            6.33004222606361        2.12938461301591        5.47383014002549
H            6.63980088679966        1.08218674153579        7.51534656091222
H            5.80413842933077        1.85387683746765        8.86017804755177
H            7.49076738366096        1.36617856296720        9.03120342094542
H            8.46131599099663        2.36125230087238        6.24088468044246
H            9.32634107076646        2.67207820006498        7.74221623978651
H            8.85633338151344        4.01541388952265        6.70032612208387
H            6.50153642146444        4.16938979118608        9.64325690844703
H            7.72562285268978        5.08237921227450        8.75127221932999
H            8.18876836524624        3.68440153764479        9.71369935944353
H            5.63554355194519        5.41878629442471        8.09074006129843
H            3.90807983983299        6.29059106314395        6.58066552829953
H            2.80304912323727        6.24542303447504        1.88132296428400
H            0.90784027684969        7.70437016929404        1.33283512275675
H           -0.69398317346768        8.31898134254312        3.07341414929745
H            7.25730979271989        6.48851080634663       11.30845993674763
H            8.11381002473680        5.30780281563969       13.29442420972181
H            6.59708249766978        3.91433950627307       14.63870766940730
H            4.23239715760287        3.70279515484949       14.00044674807736
H            3.38868971587219        4.88672560124731       12.00963259667719
H            4.56553618587058        8.83879147989861        6.17794247419831
H            6.12680254140369        9.89612671607722        4.58921319291884
H            8.53353834753507        9.94812719597334        5.09189376384895
H            9.37651420939320        8.95413005679359        7.17729528068630
H            7.80403122569647        7.90814228751294        8.76088569589957
H            1.14605931604325        7.21930836022512       10.74184091738867
H           -1.22936913154209        7.71626592671664       10.33229129847442
H           -2.03720029596215        7.96020846129399        8.03537545507820
H           -0.17056689509988        9.82739864162161        5.79116871884170
H           -1.79287314988984        9.47516879474575        6.37911399501998
H           -1.47030616439854        9.46896413233267        4.65447603534038
H           -1.66382944359599        5.78662258727499        5.49605157722151
H           -2.28840043154493        7.01980846945335        4.40304941500294
H           -2.72879270341038        7.05215672714135        6.10682324269597
