65
 energy: -12.938093390151 gnorm: 0.000816432884 xtb: 6.6.1 (8d0f1dd)
C            0.89073551044437       -0.03383069842081        0.02742239309828
C            2.42896148743749       -0.10333187066121        0.05879618299199
C            2.98374870587346        1.16350577110001       -0.62073847060161
C            2.91730806753093       -0.12631091500338        1.51862060263423
C            2.89605689061247       -1.38443099453188       -0.64951100507216
C            3.77036414544351       -1.35173577268021       -1.75247355793898
C            4.19510288681529       -2.49606037252341       -2.38156300560046
C            3.74828964678616       -3.72555455690614       -1.90924509690817
C            2.87070781927423       -3.78202729981004       -0.81700011573219
C            2.45124849215923       -2.60973074919621       -0.18927195244584
C            2.56245125764405       -5.17419706139243       -0.58499070145189
C            1.73288966351243       -5.81447215335862        0.33513528175558
C            1.60558682361552       -7.19088128595308        0.30773832139861
C            0.66977699687896       -7.87853807699418        1.31346222544270
C            1.15530832500676       -7.58249662039604        2.74410035278346
C           -0.76001558868861       -7.33776240210817        1.12738503183023
C            0.63874155101873       -9.40647183474203        1.11601989878924
C            2.33387820126975       -7.91970527591386       -0.65095883864224
C            3.15770536388226       -7.30610176701645       -1.56061093302904
C            3.26832564197380       -5.91987902573479       -1.53892033630468
N            3.99781618462151       -5.03705146615508       -2.36198254793979
C            4.77221011148474       -5.40505814978558       -3.51406826208925
C            6.12699562355324       -5.10411523684754       -3.56891062013992
C            6.89467238668495       -5.51067335770047       -4.63547656406186
C            6.31925592360037       -6.22574109943030       -5.66910518545478
C            4.97608394466623       -6.52225855448219       -5.63935439745312
C            4.17855072218832       -6.11661718786095       -4.57296732895196
C            2.71919790197131       -6.38162179616007       -4.56419824388364
N            1.90457649221005       -5.33444979628178       -4.46346258763967
C            0.63103212944164       -5.64888551193340       -4.43513069353785
C            0.16165997388357       -6.93759882567031       -4.49856291023268
N            0.93929697219383       -7.99289266175161       -4.58568158341560
C            2.23478290203997       -7.70502760698345       -4.62216083340736
C            3.15814780653408       -8.76498832375530       -4.65499043539786
N            3.94757114147604       -9.61841324017033       -4.64707318402577
H            0.53210500312370        0.87966769048663        0.50067855656167
H            0.44415338930856       -0.87674397421544        0.55254135295874
H            0.52627304985110       -0.04766247097684       -0.99918613925974
H            2.63192354834272        2.06017874680778       -0.11137475189068
H            2.65877716316840        1.22584695199695       -1.65876281071427
H            4.07278668845072        1.17831411982253       -0.59573117020147
H            2.61497041232474        0.77810092692307        2.04560397423695
H            4.00398352319304       -0.19363830872379        1.55947313368960
H            2.50910010698258       -0.97945224315110        2.05856204195124
H            4.11952297243608       -0.40433326317028       -2.12161524689603
H            4.85456583166431       -2.46074087648658       -3.23018025789127
H            1.78287788494436       -2.67373632712518        0.64889630728243
H            1.19261038945529       -5.22580978205086        1.05272915900169
H            1.14481194239395       -6.51369267631785        2.95250398856944
H            2.17423405314110       -7.94108849788384        2.88605644891326
H            0.51942971373352       -8.07204125526335        3.48101538408955
H           -0.80607484157248       -6.26598037819781        1.31422302370105
H           -1.45355985554857       -7.82502517926943        1.81190706722271
H           -1.10822074991049       -7.51530470227376        0.11041527486695
H            1.62727121555204       -9.84134284164847        1.25908086196896
H            0.28603520013724       -9.66586410161462        0.11839773227098
H           -0.03324396147653       -9.87493803083658        1.83441558257723
H            2.24157631247303       -8.99022034081147       -0.68615455163832
H            3.69660863804394       -7.87073626449014       -2.30019839896239
H            6.56920648503137       -4.56400138812665       -2.74998743225889
H            7.94674659414963       -5.27873264612353       -4.66111512256425
H            6.92346032044562       -6.55139672559655       -6.49993667067931
H            4.52323304019742       -7.07386719574229       -6.44527022376017
H           -0.06782295164177       -4.82989248951550       -4.35742419326496
H           -0.90195322343465       -7.12105069921261       -4.47124381924645
