53
 energy: -9.832968027855 gnorm: 0.000686832192 xtb: 6.6.1 (8d0f1dd)
C            1.09373427079179       -0.47585291752156        0.06303034166400
C            2.59802278370479       -0.15731784133498       -0.00427571718122
C            2.80658279409420        1.31377910635083        0.40396403820958
C            3.36052689620201       -1.04586327079025        0.99694382694197
C            3.10572856328705       -0.43355116028023       -1.42794172766376
C            3.55384165614114        0.59540995070073       -2.27661507320128
C            3.98726364128259        0.35318817172278       -3.55753952869719
C            3.99533763191347       -0.95509471672750       -4.04271303828551
C            3.53211206003513       -1.98818159521205       -3.21067406423091
C            3.08991816161658       -1.72559284065889       -1.91334893650660
C            3.58032508574199       -3.21138029285524       -3.96743529902706
C            3.21222930465514       -4.51933809611523       -3.64838338094930
C            3.33232422951587       -5.51980659699067       -4.59297890583404
C            2.92532066376299       -6.95427932561326       -4.22234921991282
C            3.78280984021384       -7.43541215536313       -3.03719995771594
C            1.43717660973041       -6.97459476030895       -3.82716862302840
C            3.12900566168311       -7.93100887784835       -5.39654771210743
C            3.82452006480698       -5.18587318238494       -5.86874163585343
C            4.18906418035280       -3.90461255983868       -6.19615931819807
C            4.07433755040490       -2.89471585338759       -5.24092160095881
N            4.35637058350444       -1.51097823256644       -5.29426752332428
C            4.85828912261266       -0.85048522227430       -6.45518487518303
C            5.35809630359253        0.41312203128950       -6.54752314754887
C            5.71294938997294        0.79927201786978       -7.87587858191794
C            5.50524161010659       -0.16962451033702       -8.79325079915036
S            4.90685099117368       -1.59980556627020       -8.02481961940313
H            0.69743604712529       -0.28322657004362        1.05984289060670
H            0.90085862757553       -1.52065525052263       -0.17776421390479
H            0.53827900435857        0.13797605789975       -0.64577768348090
H            2.46932834215468        1.48215607526393        1.42669243347400
H            2.24128373369922        1.98633630620497       -0.24046173335789
H            3.86004085679016        1.58843757564191        0.35421297719134
H            3.04024957289800       -0.84429297348387        2.01905395144598
H            4.43269485241611       -0.86086780398688        0.93699767161073
H            3.19146069288205       -2.10368368922607        0.80093461705107
H            3.55254669507541        1.60966266111711       -1.91909511452003
H            4.28430761481967        1.16826528778991       -4.18898269811371
H            2.72747635422309       -2.53625485612901       -1.30905582824253
H            2.83442042238508       -4.73291277265033       -2.66586438953930
H            3.63236428141514       -6.80921675503959       -2.15872802148745
H            4.84205090281658       -7.40556540238353       -3.29164126446988
H            3.53030485983206       -8.45953602119864       -2.76297307045919
H            1.24774009378738       -6.34023144326576       -2.96218863664457
H            1.11373872512910       -7.98461402511258       -3.57613439502517
H            0.81633578952213       -6.61554320274999       -4.64769367434598
H            4.17473611075538       -7.96711477192098       -5.70088722613516
H            2.52617807318364       -7.64230609068687       -6.25726298971292
H            2.83433407598826       -8.94150467704688       -5.11347101540214
H            3.92119811113227       -5.95434396860862       -6.61468940486507
H            4.56331980553564       -3.67666859957796       -7.17507522410147
H            5.49917073005984        1.06262360508890       -5.70018082288553
H            6.10614032730976        1.77613507579387       -8.11924024815111
H            5.69935564623091       -0.09000547441866       -9.84624680747442
