104
 energy: -19.842245353150 gnorm: 0.000403941815 xtb: 6.6.1 (8d0f1dd)
C           -0.64529505405713       -2.01195352312283       -1.01379274559101
C            0.58415577768310       -1.08699044893093       -0.95471737469719
C            0.16551886887122        0.30795689457502       -1.45766248018863
C            1.06307456349830       -0.95416407101131        0.50265891827434
C            1.71339626289682       -1.68767811940957       -1.80568873774680
C            2.26789058606922       -1.00161562349580       -2.90415234066744
C            3.27339007220820       -1.54103751504383       -3.66743713329390
C            3.75956287550500       -2.80191962746717       -3.34079702316942
C            3.22662508198617       -3.50158043988400       -2.24840816964891
C            2.20165623231391       -2.94105908271294       -1.48667731447088
C            3.88957348421497       -4.78250590699419       -2.19804762593667
C            3.71157581758981       -5.89802486510260       -1.37973976116666
C            4.46437088999498       -7.03659711301288       -1.60063906777357
C            4.26026557768536       -8.31945425033095       -0.78234055564441
C            5.59520700105825       -8.73831513284772       -0.13900193239162
C            3.22231450202190       -8.12384206454561        0.33954371282628
C            3.76283680965659       -9.43356236144126       -1.72054985101995
C            5.41565391432372       -7.03121343746999       -2.63730561912720
C            5.60333707186176       -5.94254341520735       -3.45063423486103
C            4.81483368715402       -4.81370758597795       -3.25267167830176
N            4.69683547125639       -3.62169967004924       -3.99740015638758
C            5.24934139295259       -3.33275020160071       -5.29412163869671
N            5.86954553663793       -2.18765535092348       -5.45171458196320
C            6.42026257736313       -2.00946772035773       -6.66932935125860
C            7.12485455637739       -0.81850949367237       -6.93745861739082
C            7.71998345018598       -0.60490563746792       -8.14661920759084
C            7.64032920076655       -1.57324230049141       -9.14793007033035
C            6.96474470673126       -2.73733145059241       -8.92360392895738
C            6.33601914557727       -2.99157295731648       -7.68797536765847
N            5.65782913983259       -4.14464661161097       -7.52048956522291
C            5.09307874934461       -4.28121697728756       -6.34442571038711
N            4.29096520711421       -5.45432893908027       -6.11981410651260
C            3.00190644663347       -5.52700272346132       -5.55190948195869
C            2.08945688824793       -4.53075661600738       -5.21941779149940
C            0.94475218017710       -4.87654213189821       -4.54620575444531
C            0.65939278888904       -6.20968340015143       -4.19510303073435
C           -0.58433992447162       -6.58695836335381       -3.37777169544428
C           -1.42072042067117       -7.61546767288916       -4.16089476385649
C           -0.13580890890390       -7.19266544870598       -2.03519665406968
C           -1.47017270660822       -5.36142174487072       -3.08477937483977
C            1.54640776647142       -7.20172936530327       -4.56816860856551
C            2.71293184874734       -6.86759159874242       -5.25523747517108
C            3.82503397586239       -7.65928398994353       -5.72346652084727
C            4.09720246001302       -9.02618162252196       -5.67076299101969
C            5.29641086675919       -9.50866338779423       -6.16090846627254
C            5.57356468292943      -11.01893776226139       -6.10718124537085
C            5.47786299578440      -11.50747582476227       -4.64977896342275
C            4.53029944670670      -11.75389834704293       -6.96829151602804
C            6.97727796675756      -11.36417943568384       -6.64064530874440
C            6.22205368531680       -8.59845260661528       -6.70822225793985
C            5.97082226276286       -7.25007774845549       -6.76599498641152
C            4.76275699042128       -6.77196740026767       -6.27134926659499
H           -1.47034734066949       -1.60175213603092       -0.43181092704411
H           -0.41730145531209       -2.99991220657671       -0.61575010147565
H           -0.98564675797975       -2.13287057445854       -2.04194313632006
H           -0.63554994394230        0.71618027038463       -0.84159051108818
H           -0.19955737989764        0.26206318829755       -2.48342512061816
H            1.00038997789476        1.00710180872012       -1.41657938643683
H            0.28847110841033       -0.51269413010077        1.12938065921406
H            1.94691176620875       -0.31930099091517        0.56059406883529
H            1.32025572194831       -1.92464108387226        0.92520449574970
H            1.89533635875220       -0.02634093906678       -3.16124970646260
H            3.69285428975861       -1.01887773289769       -4.50841239361483
H            1.79553967988183       -3.49796775630367       -0.66285445326908
H            2.97288277439980       -5.85652571640063       -0.60206684726062
H            5.97974114967751       -7.94413980475368        0.50052420557032
H            6.35000804558675       -8.95613854246710       -0.89333373467517
H            5.46974342532365       -9.63223991883977        0.47163042169786
H            3.53172549472931       -7.33615491243769        1.02617105956502
H            3.10231546022553       -9.03909528230151        0.91898568890522
H            2.24610865141477       -7.86407210085423       -0.06848692320118
H            4.48773866847931       -9.63404066310363       -2.50770016569955
H            2.82591339892914       -9.14646397844631       -2.19684078310214
H            3.59528270775405      -10.36122822083021       -1.17382646190324
H            5.99813619784149       -7.91849471891322       -2.81420819785230
H            6.31536604276585       -5.95657550218250       -4.25618938775845
H            7.18598424412484       -0.07950027472015       -6.15776906188334
H            8.25496529532454        0.31250034802596       -8.33040447211027
H            8.11270643394132       -1.39828915099042      -10.10075124286940
H            6.89368652108856       -3.48720493517908       -9.69199940668147
H            2.31223000578393       -3.50748493418814       -5.46321387918794
H            0.26000880334644       -4.09642994758888       -4.26564733608770
H           -0.85920847699982       -8.53167276288175       -4.33872217168761
H           -1.71844521573351       -7.21197157355245       -5.12844761976553
H           -2.32475913717705       -7.88107787246882       -3.61330987756001
H            0.45925725722840       -8.09219761259603       -2.18681786156953
H           -0.99484408457244       -7.46028105188142       -1.42035462916652
H            0.47067081154487       -6.47966648868210       -1.47711575583654
H           -1.81393213466015       -4.89512725671598       -4.00778103835485
H           -0.92685237270176       -4.61919570021724       -2.50147732795602
H           -2.35148929082626       -5.64887001829478       -2.51162227113981
H            1.36280529539679       -8.22928581200908       -4.31510926391337
H            3.36833677359038       -9.69020011036064       -5.24467260767910
H            4.47629712466409      -11.36171528023247       -4.24767330964147
H            6.17912107204011      -10.96595979273584       -4.01517346433969
H            5.71032221465007      -12.56986168759536       -4.57900176780016
H            3.52013103351426      -11.57853649771336       -6.60016454451826
H            4.70621861472140      -12.82939045494547       -6.96187001898118
H            4.57364390878275      -11.41048666601544       -8.00162403273372
H            7.75154928186171      -10.86616976786045       -6.05745423464870
H            7.08467647750218      -11.07014722080622       -7.68441351073402
H            7.15949759599773      -12.43716149620251       -6.58224946799107
H            7.15723715306857       -8.96290548553643       -7.09376895301001
H            6.67882230399706       -6.55592666103659       -7.18159376357727
