51
 energy: -10.774667271966 gnorm: 0.000725975459 xtb: 6.6.1 (8d0f1dd)
C            0.91420266707077        0.10095478103532       -0.20862654413934
C            2.44933908206411        0.06865632758380       -0.09909907082560
C            3.05517224565042       -0.41363851436237       -1.43032379869044
C            2.94990527661568        1.50097103701667        0.16952209995639
C            2.85565706995381       -0.89652684020687        1.02516268275778
C            3.54867875700004       -0.47438333909141        2.16424027235763
C            3.88990061382860       -1.35958326413877        3.14318854723399
C            3.57060729648251       -2.72680040332905        3.06692896446325
C            2.86746169355843       -3.16923401476169        1.92232299683230
C            2.52960561624420       -2.22689248505860        0.93235032267969
C            2.51509182156520       -4.56108811393504        1.79343510300973
C            1.81181974631745       -5.05479649133004        0.66283223820584
C            1.48247088510724       -6.36252032582954        0.54404246770967
C            1.83068160481001       -7.29486176392815        1.55267862658725
C            1.49235070592703       -8.65067790574196        1.43767810633646
C            1.83672352516611       -9.53626674355302        2.42110587327453
C            2.52494132194593       -9.10503612418386        3.54382157237558
C            2.88487052486649       -7.77480335113284        3.70923145923283
C            3.61146907351068       -7.30368905863625        4.88546199180735
C            3.98702214497630       -8.16146105218240        5.91823230343234
C            4.67221171271468       -7.69710580980212        7.02122392505343
C            5.00001546719931       -6.36898602410250        7.12135864251339
C            4.64785771719404       -5.47065888261386        6.11657347656502
O            5.00462655083469       -4.14624101204241        6.27372131320914
C            4.66711267607185       -3.22544119582477        5.30404275600134
O            4.97265432094072       -2.05044629142515        5.43707053306473
C            3.93405346219235       -3.65878194656693        4.09971270258182
C            3.58904955761974       -4.99727043062327        3.96397609039055
C            3.94715968570820       -5.93500013834149        4.98759713709525
C            2.87641025467706       -5.45890485607789        2.81092362473239
C            2.53212227252032       -6.84397443273544        2.69503109122276
H            0.59313380359680        0.79019684489332       -0.98884515254017
H            0.46850792057073        0.42365197029231        0.73162848988382
H            0.51336682301597       -0.88300609728321       -0.44738538478145
H            2.80821131909614        0.27051178806306       -2.24135175093273
H            2.68244052061101       -1.39952039686244       -1.70361299161197
H            4.14051169407756       -0.47462812611573       -1.35876655818198
H            2.66530916934642        2.16825762887762       -0.64341954289383
H            4.03578280951662        1.52720420331671        0.25279737237943
H            2.52189335285452        1.90103192025997        1.08791682250903
H            3.81812103756122        0.56073063725792        2.27572664777264
H            4.42211954001572       -1.00347583771132        4.00504921788113
H            1.99216689626345       -2.55137689755082        0.06328267375635
H            1.52953240296391       -4.38118053824415       -0.12458245838960
H            0.94903980610382       -6.71234246334845       -0.32289197351156
H            0.95788406413580       -8.98587786214926        0.56560868551126
H            1.57229389791110      -10.57639305947209        2.32287968025533
H            2.78180281043135       -9.82678462853800        4.29682681427639
H            3.74175531129369       -9.20587702338298        5.86524717048548
H            4.95069670904214       -8.37907517731339        7.80777438722738
H            5.53474476125812       -5.99215821906723        7.97516034387796
