43
 energy: -8.731236425454 gnorm: 0.000928309619 xtb: 6.6.1 (8d0f1dd)
C            1.78383589892249        0.09049119885622       -0.94015778277987
C            3.12960179471101       -0.18738379986393       -0.24470611021225
C            2.88350040672790       -0.60055698917914        1.21699690870938
C            3.81703204755255       -1.35754975297585       -0.97553923698435
C            3.98988559585851        1.08526030708461       -0.27386085235054
C            3.49190995987729        2.27041623155516        0.28050312525748
C            4.22083724281452        3.42909189492840        0.25723780310329
C            5.49416420053095        3.46260583781313       -0.32066006326518
C            6.01944682881140        2.27927893559494       -0.86949421394573
C            5.24877842430706        1.11221128241620       -0.83387385989629
C            7.32426363086059        2.28728750464406       -1.49437927681458
N            7.78088138356057        1.15723868186823       -2.05133566652491
C            8.92978798806922        1.26046293738167       -2.66363555664971
N            9.69801407042178        2.32439752441340       -2.83964125010300
C            9.25014195424622        3.41343243908076       -2.27695658606369
C            8.07132441034294        3.47581177363023       -1.54354641873851
C            7.55442013333883        4.67783790825829       -0.90579390826007
C            8.19417017586358        5.98629678833495       -0.74300373534615
C            9.51242070323294        6.38106373440928       -1.03100026092166
C            9.90564948818141        7.67790459647486       -0.81099444945031
C            9.01941783888459        8.61425543104417       -0.28759981292707
C            7.73988621110982        8.24351508857731        0.04278458912256
C            7.33733099460188        6.93239285788308       -0.16872671938106
S            5.79924281415266        6.21787821522064        0.23738563618806
C            6.28668680456108        4.65283602932053       -0.36139127323078
H            1.16438511982031       -0.80542618299939       -0.96341706277865
H            1.94319246019936        0.41705700354651       -1.96714007987768
H            1.22307200770156        0.86855926591838       -0.42458610289566
H            2.28507898447007       -1.50953856633650        1.26941018720021
H            2.35649989554015        0.17970436683537        1.76432920153582
H            3.82719949312702       -0.78814887445252        1.72808093945794
H            3.18697409942080       -2.24639200834202       -0.96019910686620
H            4.76238192176089       -1.61685779047497       -0.50015892760929
H            4.01039241677614       -1.10784450528716       -2.01841227337137
H            2.51591580225977        2.26814433471215        0.73328480060258
H            3.82489556477610        4.33291804911331        0.68569836470244
H            5.67229443897567        0.22739776951789       -1.26993980641325
H            9.29799712743501        0.34860616551813       -3.11292887399083
H            9.81353202108923        4.30715271910324       -2.46461326721867
H           10.23937587074590        5.66489887613550       -1.36000340390426
H           10.91711435729475        7.97476453053741       -1.03578769058988
H            9.34437240865997        9.62882704891076       -0.12527473592699
H            7.04820500840447        8.94704114127078        0.47305680940929
