61
 energy: -12.960028127456 gnorm: 0.000460323999 xtb: 6.6.1 (8d0f1dd)
C            4.10363318035392        1.57574389530253        0.63507535368742
C            4.29375883932349        0.15102776899953        0.08361034531098
C            4.77194133273045        0.21852044431734       -1.37828807187236
C            5.38278705052179       -0.55141241515519        0.91747199850901
C            2.95427247007060       -0.59878028541677        0.14838458565124
C            1.85454268336912       -0.10114574164601       -0.57455523544107
C            0.62745470507248       -0.71479840058459       -0.54703634116744
C            0.47372555343618       -1.86448138659494        0.22359986991652
C            1.55391397315632       -2.38529226612429        0.95620897153519
C            2.79222790356713       -1.74017371989805        0.90704406480143
O            1.16536557702983       -3.51873749303649        1.64919909142642
C           -0.17552482453887       -3.73661144342881        1.37703497555842
N           -0.93727218583127       -4.72120663675311        1.86005560391436
C           -2.20795536421111       -4.69210607688463        1.45050528417607
O           -3.21272543347533       -5.57497489615302        1.80904330481390
C           -4.37328788278128       -5.17047022269389        1.17091368375773
C           -5.66320406403500       -5.70887298443398        1.21148714770034
C           -6.66004502330363       -5.11062759907338        0.48840792406680
C           -6.41568053395561       -3.97163696506664       -0.29875638324499
N           -7.49239802114726       -3.36183917802848       -1.03599371216083
C           -8.56197287785873       -2.63638554128746       -0.48030462681846
C           -8.85741127248241       -2.32245202700449        0.84543464273605
C           -9.98089265373599       -1.57953716244531        1.11053336461981
C          -10.81674817221981       -1.14291829673856        0.07768870277880
C          -10.53889022945789       -1.44342544290663       -1.23373618299579
C           -9.39934125312482       -2.19762207664631       -1.52049406322621
C           -8.82905926304266       -2.67382738010376       -2.75806453945532
C           -9.23169491950622       -2.55542183803823       -4.08972357397791
C           -8.46390602725084       -3.14498177105878       -5.06446271082942
C           -7.30172411462085       -3.85135111410240       -4.73810510425604
C           -6.89178419740190       -3.97606019103872       -3.43385970973897
C           -7.65913744050632       -3.38223243588808       -2.43283095841408
C           -5.14623397540117       -3.43156653756866       -0.35326197907023
C           -4.12770408953107       -4.02903832458458        0.38459696028108
C           -2.74208271725513       -3.71404816261902        0.56117835210626
C           -1.95246189717387       -2.70025958688132        0.05742163923556
C           -0.64016430903180       -2.72519520767821        0.48660709303494
H            5.04222223850060        2.12860291718182        0.62008271010682
H            3.74661031918584        1.54505143421693        1.66388663834295
H            3.37818426646394        2.13496362609281        0.04630964966485
H            5.73364930845540        0.72528697368282       -1.45040246634617
H            4.06370867139199        0.75998779223311       -2.00333547826651
H            4.88616728716650       -0.78280500201494       -1.79189521505235
H            6.32624321503778       -0.01011638735651        0.85497532435079
H            5.55959994398782       -1.56442254965075        0.55793396079712
H            5.10172938163775       -0.60076083888059        1.96878822946540
H            1.97914615206886        0.79050787841141       -1.16334766621234
H           -0.20860455453306       -0.32507377699720       -1.10039634752393
H            3.59952214534657       -2.15613194126411        1.47804905387546
H           -5.84788897955485       -6.58006856220413        1.81373189854018
H           -7.65928909650547       -5.50901033695121        0.50936289859928
H           -8.20632018770045       -2.66125022715566        1.63143556274627
H          -10.22283645209610       -1.32752898989507        2.12989773418108
H          -11.69158517073602       -0.56069060425050        0.31571627914998
H          -11.17636965888903       -1.11017341782477       -2.03342547533423
H          -10.12836399527398       -2.01330339941666       -4.33274487886381
H           -8.76186722250944       -3.06457402755235       -6.09682205692053
H           -6.72089929502321       -4.30611254185010       -5.52358477905937
H           -6.00216728351305       -4.52027960850781       -3.17134037319215
H           -4.95320058118010       -2.55855829554929       -0.94784586832486
H           -2.33061097744484       -1.94720141557112       -0.60798910166038
