49
 energy: -10.014812798201 gnorm: 0.000266494981 xtb: 6.6.1 (8d0f1dd)
C            3.47585622700363        1.47847125983302       -0.75943298087044
C            4.49252884542033        0.64777186282697        0.04467510399979
C            5.78262049030578        0.46804640869630       -0.77708358419148
C            4.84289296585564        1.41790229453955        1.33247283913157
C            3.88446563997042       -0.72925547376432        0.35015868096876
C            3.62327016158645       -1.15548990708532        1.66303045807902
C            3.05594040015138       -2.37650852381508        1.92473144040600
C            2.73155886890049       -3.21204633676414        0.85930961712807
C            2.98573659380806       -2.80901626833058       -0.45361681128010
C            3.55849600803779       -1.57273353925546       -0.69937844187749
S            2.46939931154358       -4.06662611641159       -1.56769329705213
C            1.90578246187878       -5.09737713302448       -0.25891909031015
N            2.13822441521403       -4.46992966492104        0.90747193571968
B            1.76525212433491       -5.05655762065217        2.27605444334073
F            0.85946056517058       -4.20635357305288        2.89982335662798
F            2.92016696168174       -5.20785457801861        3.03435210460598
N            1.11361473399306       -6.42083499122820        2.07276336400983
C            0.92504051130049       -6.97501360846161        0.83907773348281
C            0.26820567668602       -8.25972684905109        1.06301108288417
C           -0.20393671712562       -9.29514463250799        0.27858955163516
C           -0.80431870366830      -10.39379870857837        0.90450268473515
C           -0.94308700363460      -10.48090533671085        2.27597387536435
C           -0.47495343380488       -9.44271153203128        3.11421058337659
C           -0.52564602897167       -9.34068061033243        4.52444847398538
C           -0.01300735404600       -8.23067640893537        5.17132779109445
C            0.57322584727884       -7.16367687039498        4.48335190953148
C            0.64002127967428       -7.22873256917006        3.10543009912145
C            0.11704610618000       -8.36573695055566        2.45721077165741
C            1.30651039167036       -6.35902731557869       -0.36159891608084
C            1.08654644532462       -6.97135534400282       -1.57773639482629
N            0.89005723608668       -7.50773032872223       -2.59579936094888
H            3.86910722871720        2.46985434523146       -0.98050008689058
H            2.54975685152984        1.59947373318921       -0.19889751749360
H            3.23269472816415        0.99699247773747       -1.70521198075209
H            6.24733478628879        1.43044828111809       -0.98759607532288
H            5.58254056454921       -0.01859884613151       -1.73006179835344
H            6.50250751668549       -0.14274192493407       -0.23390748457851
H            5.28617410614311        2.38434512538668        1.09563393244666
H            5.56114362577350        0.86483624742965        1.93633028862444
H            3.95380378718113        1.60377201293878        1.93348049074234
H            3.86808317600226       -0.51375138910696        2.48984217298698
H            2.84896828055271       -2.70930247504595        2.92684518585411
H            3.73664706503258       -1.27706319597181       -1.71671457879821
H           -0.10489662318079       -9.24024452298921       -0.79105598667012
H           -1.17189540851364      -11.19921432468462        0.29062559341160
H           -1.41113974214802      -11.33950843783195        2.72395570079863
H           -0.97133956083916      -10.14175338257359        5.08694472796002
H           -0.06695288943163       -8.18276246316188        6.24623980755752
H            0.96797147972177       -6.30256229515132        4.99244858503115
