47
 energy: -9.366525004154 gnorm: 0.000588945596 xtb: 6.6.1 (8d0f1dd)
C            1.36713505806211        0.07377730497897       -0.36246959891948
C            2.72788911861961        0.08837580871707        0.35676289341549
C            3.86448462652698        0.10083780435095       -0.68231132399851
C            2.82436262107789        1.37850191322277        1.19345986096956
C            2.84977715302322       -1.16919249199463        1.23002116020823
C            2.96606589631154       -1.09887069477959        2.62836977010897
C            3.07163627196476       -2.22796160298892        3.39981740765936
C            3.06322180498300       -3.47368657957492        2.77772795806351
C            2.94643100410178       -3.56634131413941        1.39123371807073
C            2.83726294575064       -2.41617729846429        0.62705980511536
S            2.96972067055988       -5.25399509032512        0.90656527672416
C            3.14372769749673       -5.81061690039624        2.57818778004558
N            3.16539150880612       -4.72793103572996        3.37126844743355
B            3.29187972693138       -4.80445640828602        4.88693009255662
F            2.15651215599617       -4.26597098138308        5.47840253784905
F            4.44101138985330       -4.14001210005899        5.29528161734571
N            3.39991874799011       -6.27572572898479        5.22237818488541
C            3.36226116893742       -7.24663798215468        4.26318715929574
C            3.49937748203804       -8.51420737030871        4.97654325310314
C            3.54604123629140       -9.85433189704424        4.63648100441880
C            3.69497007179134      -10.80273497610626        5.65544719042953
C            3.79722455974035      -10.45160952065315        6.98803006464601
C            3.75565189880651       -9.09368520798853        7.37806407322432
C            3.84195135707454       -8.53319193712627        8.67401240963913
C            3.78077332991763       -7.16255896912800        8.85649268195986
C            3.63429666901941       -6.26963990020647        7.79155466334877
C            3.54778799197566       -6.78266147212639        6.51063299430116
C            3.60838629386110       -8.17788304179102        6.33723692925396
N            3.23594496531686       -7.09010607615023        2.94566951661245
H            1.24098283187810        0.96374250543180       -0.97803385954422
H            0.55172177293672        0.04372638192072        0.35932286493724
H            1.27224721808125       -0.79626865968701       -1.01029947599257
H            3.81988445594005        0.99852308231979       -1.29778634000572
H            3.80532486836738       -0.75973757607985       -1.34663047618453
H            4.83587975677339        0.07703086185235       -0.18981725420081
H            2.75078816749080        2.25864145158717        0.55567299950183
H            3.77588183102356        1.43257240236744        1.72113415034936
H            2.01822853613111        1.43467201324088        1.92387898998688
H            2.97371926158722       -0.14015477979959        3.11437815925245
H            3.16328874675749       -2.18338350473437        4.47096571276286
H            2.74200014211753       -2.50875712852025       -0.43904359203413
H            3.46798795512524      -10.14498925039970        3.60405373547811
H            3.73072956624595      -11.84559200397673        5.38749347845001
H            3.91020950450883      -11.20702719884831        7.74537227767436
H            3.95525355399152       -9.19082790759073        9.51751639373932
H            3.84847396271911       -6.76639970543421        9.85606856982236
H            3.58748244550041       -5.20558723702912        7.93993613824200
