115
 energy: -21.935724942661 gnorm: 0.000167356155 xtb: 6.6.1 (8d0f1dd)
C           -1.07775771688989        3.01870442667016       -1.39228250719813
C           -0.00919451191094        2.15020298441726       -0.70348961386160
C           -0.63639574777389        0.81979519612172       -0.24755058121232
C            1.09701280643925        1.83815927442392       -1.73058354932902
C            0.54198153272120        2.89377217557315        0.52385149885739
C           -0.32901092376561        3.27473010749037        1.54507622753170
C            0.13232259019667        3.89955870981098        2.67358403707148
C            1.49208982446705        4.17355836235913        2.83318217087135
C            2.00885523913953        4.76559284144918        4.04176933191295
C            3.40540337037382        4.96342620485128        4.21313542584338
C            4.32993700223191        4.65822320174739        3.16119377519211
C            5.69540660884864        4.91764477528930        3.28179637233228
C            6.56126735260081        4.65353323621888        2.25580840760138
C            6.10110970642538        4.11792155538390        1.05159015206641
C            7.03846635607449        3.82883402866064       -0.13125180637278
C            6.99455994381552        2.32507162285041       -0.45890676220587
C            6.57812712281576        4.64080865946660       -1.35664622880488
C            8.49583292032691        4.21628279747459        0.18621567469453
C            4.75107251831994        3.85142585247465        0.93061130452612
C            3.83336244670618        4.10323668611817        1.95706345168700
C            2.40013836943304        3.81896959020992        1.80744238976212
C            1.88614410983234        3.17866775655886        0.67323012536807
N            3.56759943722168        5.45289845397613        5.47261599159587
C            2.34463715575293        5.59552110018997        6.12597255229194
C            2.19912809811549        6.06318650123152        7.44681705333990
C            0.87973542380429        6.21696029709898        8.08462780165051
C           -0.09173493939756        5.21527102663171        7.99579933976883
C           -1.32101973858312        5.36864468660284        8.59495139376945
C           -1.61191320503484        6.52178935088299        9.29745376362569
C           -0.66558229301990        7.52238417863291        9.40147215935291
C            0.56540649232182        7.37351578969101        8.80511044879625
C            3.39035747475904        6.33999558245072        8.14588773185322
C            3.56797128717374        6.67325521177739        9.50303002239964
C            4.93966251806647        6.73214037279321        9.75543549873364
C            5.66631225654534        6.95054958638997       10.98102595335418
C            5.01007368707727        7.20900572425946       12.18611898865711
C            5.71526127793835        7.38089663721090       13.34830162058945
C            7.10885781250916        7.30135832599140       13.36141744234076
C            7.93089183930055        7.46540145721459       14.64964265442756
C            8.70951657527624        6.16511112956217       14.92278613319916
C            8.91826288268022        8.63519541664719       14.48109076343797
C            7.03388451975425        7.75968929093591       15.86747971991177
C            7.75902916306678        7.05101058417749       12.16863278037188
C            7.07900876216556        6.87121849044672       10.95828548173191
C            7.78642441910476        6.60155508217099        9.69939349396416
C            9.18283607590203        6.52229427064356        9.63406710267584
C            9.86193900092641        6.27469225466123        8.45576294669693
C           11.39408567257273        6.17092529957793        8.39402879085033
C           11.78745367726397        4.78221607908301        7.85654275223259
C           11.94055363624310        7.26394809936757        7.45749097767684
C           12.03849153957641        6.35279167987816        9.78237328173277
C            9.11637744447796        6.11377729822792        7.28747612615918
C            7.75057339819102        6.18250112301150        7.30932848291763
C            7.05956461598060        6.40990517444987        8.49945881174952
C            5.62801587241275        6.45237719114469        8.54443837568310
N            4.66949400228681        6.21197796377314        7.60873480254374
B            4.90246883394463        5.77529742460472        6.15685567648723
F            5.68236546533113        4.62069710825661        6.15788825676351
F            5.52254794735191        6.81805767088882        5.47385112909732
C            1.36179324784677        5.17539879250880        5.20864794833440
H           -1.47014794791535        2.52248929481518       -2.27956887751786
H           -0.65637945390129        3.97551923138065       -1.69915103378585
H           -1.91590998211952        3.21971439503295       -0.72664667935930
H           -1.02164403501946        0.25782406473417       -1.09792581596779
H           -1.46183062464060        0.98744590562570        0.44295334496819
H            0.10279411315719        0.20022552420213        0.25956012228448
H            0.68495622363018        1.31980363577898       -2.59609773303307
H            1.86442387407821        1.19597315478436       -1.29918070810174
H            1.56971135404883        2.75241529625308       -2.08846240638917
H           -1.37946131049509        3.06103312754230        1.44946882416333
H           -0.55232849314951        4.17174684063109        3.45772228590422
H            6.05592142795059        5.34703832527912        4.19765396255053
H            7.60644089623447        4.87179504593702        2.38409755767758
H            5.99127364287635        2.01028969870977       -0.74292441794238
H            7.29834307486916        1.73456325942240        0.40497894489132
H            7.66488071299487        2.08604856057259       -1.28412101175901
H            5.57099580808010        4.36183777639194       -1.66328238148054
H            7.24133070808600        4.47573005134941       -2.20537339569489
H            6.57607951156281        5.70713828292190       -1.13243298006852
H            8.87657802251642        3.65010931023268        1.03572155678006
H            8.57847660837103        5.27904335785793        0.41219821231063
H            9.14474788160308        4.00934338061012       -0.66448932584363
H            4.39845590251537        3.44713575304082        0.00184237642863
H            2.56429002077103        2.88013397314730       -0.10094669174678
H            0.14510590109272        4.30372902824652        7.47491392138810
H           -2.05740986468115        4.58514039913531        8.51947496106073
H           -2.57578072219062        6.64019610482275        9.76511195975116
H           -0.89297773300749        8.42320126442687        9.94801380954977
H            1.29662161161584        8.16094854246828        8.86918855885435
H            2.78480108327055        6.79290445837508       10.22960439914138
H            3.93568860235871        7.26755120109719       12.19389265062396
H            5.18023845107408        7.57520520460995       14.26078511974683
H            9.40082224957586        5.93898652314609       14.11205935596847
H            8.02652839083901        5.32216931688424       15.02433679300751
H            9.28874017250350        6.24297477964088       15.84247158980594
H            9.61878583053152        8.45044738741110       13.66789580069785
H            9.49857491692546        8.78921350059049       15.39046158654707
H            8.38523138143416        9.55950150592020       14.26024791835420
H            6.33238111665283        6.94493758689186       16.04447422212359
H            6.46838001854692        8.68006404286120       15.72474148131082
H            7.63386644519036        7.87819817438386       16.76947345886347
H            8.82951139046721        6.98636838946509       12.18221987276298
H            9.74888031056329        6.65682699434425       10.53382287446581
H           11.40398794224683        4.62313712021424        6.84970451285198
H           11.38662014188098        3.99537449202384        8.49492959170580
H           12.87074287271847        4.66968745284399        7.82157325153076
H           11.55560073079605        7.14721900413372        6.44538715065540
H           13.02839691764289        7.22587326172323        7.40659927504542
H           11.65340091237568        8.25329284514743        7.81249242071261
H           11.69013194366762        5.59118761951487       10.47958042817782
H           11.80940650043925        7.33421267457173       10.19674247753462
H           13.12312422710002        6.26844309635517        9.71845814552110
H            9.62339141173681        5.93171794797908        6.35588074009230
H            7.18565198697475        6.06993855422061        6.40266816099857
H            0.30060466609578        5.16441252760855        5.37840623466082
