40
 energy: -8.049099754561 gnorm: 0.000442393967 xtb: 6.6.1 (8d0f1dd)
C            0.92862967378399        0.02004075320189        0.15549633090546
C            2.46106132464608       -0.05420504443346        0.02753589552860
C            2.98048703160091        1.32018600147493       -0.43592975000011
C            3.08139872441967       -0.36855015095984        1.40182836609162
C            2.83023738758237       -1.16747729581523       -0.96427979041430
C            3.50258246804942       -0.92053116919968       -2.16149393416549
C            3.81081071135303       -1.93861873368355       -3.02975102372599
C            3.46547964820742       -3.26578817801965       -2.75298803143744
C            3.77699625812500       -4.37125070684289       -3.65694441076464
C            4.44251431673951       -4.16430402357447       -4.87219698938455
C            4.72612320664280       -5.20617191157957       -5.71697309469417
C            4.35339577958319       -6.49433578473882       -5.37711661147167
C            3.70166771148539       -6.72931874202602       -4.19443842824701
C            3.39981385842530       -5.68691721963651       -3.31001941163594
C            2.70820063589458       -5.93365634397657       -2.04692879334537
C            2.31817142972174       -7.19341311847418       -1.61639498084523
N            1.70062411607954       -7.41323888121162       -0.48402278063434
C            1.47108272630017       -6.32747943122246        0.23222355747246
N            1.77234651813410       -5.08096465386379       -0.02677376109265
C            2.40488567721268       -4.87495042699912       -1.18707522058567
C            2.78803698044832       -3.52531043437889       -1.54847235755114
C            2.48459517507932       -2.47110892327720       -0.68496961931729
H            0.63209400214281        0.80974643348816        0.84512290307161
H            0.51700661331658       -0.91800322795633        0.52536625887943
H            0.47151650935800        0.22665071277478       -0.81170914253247
H            2.71935613865629        2.09474529148846        0.28470150229171
H            2.54470063538202        1.60241452855261       -1.39373887911019
H            4.06539674623794        1.31532174214968       -0.53637464205401
H            2.86022148850269        0.42098703868484        2.11926940554796
H            4.16417280800487       -0.45989980907881        1.32313437018382
H            2.69600978723253       -1.30265424493537        1.80773647566601
H            3.78690207945620        0.08525762843432       -2.41465609843772
H            4.32956309682429       -1.70212964838962       -3.94058318914698
H            4.73980171789523       -3.17158703613650       -5.15618456479186
H            5.23895435217528       -5.02351383043079       -6.64732326957539
H            4.57570491471343       -7.31195271896882       -6.04344135432527
H            3.41801632311298       -7.73621528015645       -3.94817959512081
H            2.52392417163134       -8.05883312812539       -2.22247715380798
H            0.96100105167045       -6.49417325418333        1.17086287838852
H            1.96246620417241       -2.70431677797480        0.22447893418840
