62
 energy: -12.095614081228 gnorm: 0.000463647944 xtb: 6.6.1 (8d0f1dd)
C            0.47369606809859       -0.27083269668850        0.36996141693984
C            2.01260664273096       -0.32608035260079        0.40158859953377
C            2.55647325478898        0.99780406236651       -0.16927930253419
C            2.49627090922027       -0.46286949894365        1.85719200174242
C            2.49732818004248       -1.53900076294937       -0.40839644914872
C            3.35927111915835       -1.41240984370181       -1.50573783890305
C            3.78496020310610       -2.51060996779499       -2.19775390602388
C            3.37067387725607       -3.80223186121699       -1.82960103330153
C            3.81807995888228       -4.94381578690783       -2.54150032440454
C            3.43727395924794       -6.21718292736513       -2.20979220517343
C            3.91778705342438       -7.38135426009662       -2.95975950749948
C            4.77666209715405       -7.25912422310916       -4.03886327097861
C            5.22921083780917       -8.37044316662390       -4.74484284530376
C            4.83279904230485       -9.62442868173535       -4.38779107928237
C            3.95770574922186       -9.81369987231186       -3.29855444676865
C            3.53510412732010      -11.10429527318647       -2.92018971196754
C            2.68539753173625      -11.27097021198527       -1.86809186267390
C            2.22382134469880      -10.17010389837609       -1.15152947888418
C            2.60455733466904       -8.87834167536175       -1.47332164775305
C            2.12487639326481       -7.71315836124975       -0.72140419869152
C            1.26502933141909       -7.85483529416616        0.35945185372162
C            0.79438599164220       -6.76861800887204        1.08994624327791
C           -0.15425668751863       -6.92931433032849        2.28886933234587
C            0.53346104456760       -6.38690236784802        3.55518429031616
C           -1.45008111770860       -6.14016007722225        2.02394710895260
C           -0.52758842930543       -8.40455863848417        2.53190936913639
C            1.20949886542981       -5.51001616122866        0.71797274164799
C            2.07665317683569       -5.29397298745022       -0.36030612638052
C            2.50099826833254       -3.95691000060121       -0.73312456101548
C            2.08728419866422       -2.80290876489084       -0.04695533367148
C            2.54340285417243       -6.40961800019203       -1.09444569276331
C            3.49210892268694       -8.68655172015236       -2.57334378367629
H            0.10345840005494        0.59349776041728        0.92100747452004
H            0.03396733824979       -1.16173003355420        0.81647281344039
H            0.11232925987173       -0.19718579116943       -0.65548905611061
H            2.19860636688644        1.84605801581535        0.41416193269498
H            2.22965689196016        1.14474350605155       -1.19848951764950
H            3.64576836396265        1.01842686617670       -0.14429042153206
H            2.18430822766385        0.39383691879051        2.45432754156246
H            3.58369363188092       -0.52403024566714        1.89684279356544
H            2.09371796287716       -1.35993322992544        2.32621855494748
H            3.69562840166147       -0.43787992232460       -1.81221688656621
H            4.44932628860647       -2.39723547035444       -3.03741762094913
H            4.48139227872260       -4.77636093590706       -3.36786401646451
H            5.11130307253511       -6.28739989876253       -4.35199880833829
H            5.89830642499999       -8.23622061283098       -5.57941891022611
H            5.18377585699278      -10.48378278844039       -4.93314405748711
H            3.89156762576081      -11.95565135481923       -3.47451174018376
H            2.36743784442204      -12.26201627040985       -1.58712529024291
H            1.55401267172588      -10.34486707321508       -0.33000553118551
H            0.95098121179652       -8.83748004262580        0.64922111684581
H            0.76583754514431       -5.32708899542731        3.45719210519599
H            1.46655351153170       -6.91776261515264        3.74294153588447
H           -0.10613880296592       -6.50852657875727        4.42926957683555
H           -1.25086111799064       -5.07571726550588        1.90589332580596
H           -2.15305816271707       -6.25703280553178        2.84861013007873
H           -1.93565065815021       -6.49243781953002        1.11401744379167
H            0.35621836040626       -9.00229662836225        2.75417954274135
H           -1.02677477849880       -8.83146843906959        1.66217277512282
H           -1.20705929592109       -8.49625774173426        3.37929675187919
H            0.85176631438053       -4.67048872849600        1.28169474879075
H            1.43003686079435       -2.90134616840419        0.79498334241532
