50
 energy: -9.296132908454 gnorm: 0.000530420057 xtb: 6.6.1 (8d0f1dd)
C            0.98965389344019       -0.26651396386387        0.20047784761113
C            2.52645495073606       -0.14340237887592        0.14043559103849
C            3.13538527935109        0.09959213012841        1.53658354286809
C            3.05208365402875       -1.52031713889423       -0.32981031618860
C            2.93716728725456        0.98944336451756       -0.82884578680901
C            3.70587280257762        0.67362645757738       -1.94271624535748
C            4.10297959177900        1.61850581901735       -2.85864917849119
C            3.74247332984500        2.95041087339809       -2.70435666517862
C            4.14002324302324        3.94151584678624       -3.64596058919167
C            3.78791562556801        5.23439677821554       -3.49921096993515
C            2.99545235113223        5.70382902281270       -2.39667481542334
C            2.59679996217310        7.05780459534206       -2.20556568467697
C            2.87847025529630        8.29603528314012       -3.10504579892714
C            1.52778544795864        8.89324992978823       -3.55621621907299
C            3.65466304430002        9.34199157170540       -2.27637973044715
C            3.69721672434351        8.04723500857476       -4.38192340270512
C            1.84286173468563        7.35210703226409       -1.07396572663765
C            1.46481117526984        6.40843587256457       -0.15142081704845
C            1.82879514808589        5.08117126938337       -0.31545401419622
C            1.43874025097882        4.08935860846590        0.63191180423892
C            1.78602231037594        2.79689377509629        0.47804404190851
C            2.56316782086780        2.34462826067677       -0.63984762575047
C            2.96597955296257        3.33168693660213       -1.58979571533377
C            2.59947575484162        4.71336540629042       -1.44081143128580
H            0.69218468189441       -1.06451276829867        0.88074360385720
H            0.59154309818240       -0.50526273636020       -0.78575414596847
H            0.49877252451091        0.64415294559931        0.53130091025106
H            2.84505228423497       -0.69151212444772        2.22785302324615
H            2.83364435228755        1.04585583369845        1.97643832863589
H            4.22377665351306        0.10624545965728        1.47763528712712
H            2.74417697998802       -2.30513935187988        0.36124712413248
H            4.14108372031863       -1.53613638908115       -0.37227749731171
H            2.65766908588651       -1.78044979456600       -1.31203646673337
H            4.01073282533462       -0.34333740288350       -2.11119967116502
H            4.69806112853485        1.33248234953730       -3.70943240140905
H            4.73573374534435        3.63444524106820       -4.48910017200062
H            4.13442433204380        5.91275571362444       -4.24753994588773
H            0.91978287749869        9.21105781016167       -2.71083517980958
H            0.95466817950050        8.15884897033641       -4.12192019436563
H            1.68011179344094        9.76391192977987       -4.19396211668692
H            3.09246221542523        9.66849903294270       -1.40304345692393
H            3.87384672329135       10.22720481215835       -2.87331437856308
H            4.60120673986870        8.92877947300799       -1.92838367930188
H            3.19004567408530        7.35008411421745       -5.04902326944748
H            4.70265618313847        7.69820350296752       -4.14666433243980
H            3.81693977174931        8.97705124745248       -4.93908298218179
H            1.53271124387857        8.36839240953107       -0.90383249027099
H            0.87914681857785        6.69081834312741        0.70710790419748
H            0.85451218020454        4.39575640376770        1.48308949737623
H            1.46550299639116        2.10006461416821        1.22708460663527
