38
 energy: -7.522128618167 gnorm: 0.000185303962 xtb: 6.6.1 (8d0f1dd)
C            1.02002085480027       -0.28008143758797        0.48877492084035
C            2.44241637997623       -0.01793102162228       -0.04785425664498
C            3.37263985183258       -1.01666616078388        0.68037888752881
C            2.55200079697002       -0.33974200799043       -1.55240283681388
C            2.85265493141138        1.44844520179759        0.21940258610138
C            3.95336006631011        1.70346147955463        1.03065771055727
C            4.37865712742596        2.97682065719247        1.33259903150207
C            3.71116830226875        4.08540190340581        0.82936186388317
C            4.13126465396265        5.41907655936045        1.13729663912714
C            3.47450014488159        6.49039140231579        0.64617368321207
C            2.33496298733702        6.32771916068668       -0.20212403387455
C            1.63928046034577        7.42127571499834       -0.72039070799788
C            0.54314561617789        7.23862594244445       -1.53704717277815
C            0.11223342501219        5.96867763060533       -1.85829016457705
C            0.77469841382735        4.84438655041683       -1.36329229141875
C            0.35521739922128        3.51643871466463       -1.67202816465079
C            1.00513832890064        2.44095915813234       -1.17859560673757
C            2.15218983113754        2.55728131735168       -0.31909674727029
C            2.58842793187358        3.87699372359724       -0.00533520189776
C            1.89934282243217        5.01766136868267       -0.52464939757823
H            0.72318352561011       -1.31316835511164        0.30861663259313
H            0.26786344562045        0.35987723676618        0.03640099695406
H            0.98436831698930       -0.10659207251537        1.56424677867805
H            3.06300640364905       -2.04320018659774        0.48417239322978
H            3.34302592719865       -0.87023126040139        1.75991136927069
H            4.40324834323774       -0.91882383676324        0.33984356520840
H            2.26826784031004       -1.37371911215548       -1.74773414575954
H            3.57856494624853       -0.20685729010371       -1.89331782848834
H            1.92407358086758        0.29389635691666       -2.17204851284058
H            4.50690015159607        0.88279273554488        1.44954843026115
H            5.23566902370946        3.12613955421836        1.96719094243442
H            4.98774833017236        5.55401429473517        1.77524376053958
H            3.80080930799291        7.48732149356669        0.88760899347288
H            1.96961493714139        8.41564628599939       -0.47338148276896
H            0.01844822496388        8.09569691726963       -1.92706179355485
H           -0.74426652114767        5.83272096707138       -2.49606906191890
H           -0.50038537427448        3.38657830092275       -2.31256382179923
H            0.63894926401108        1.47038211341477       -1.44923595602364
