57
 energy: -10.869935922718 gnorm: 0.000690034992 xtb: 6.6.1 (8d0f1dd)
C            1.02166405907957        0.55601282297688        0.42304108427131
C            2.29888832513200        0.15685112611203       -0.33771581285690
C            3.11723095737034       -0.83782503758482        0.50626045966314
C            1.88736908590584       -0.54475711225696       -1.64654408318731
C            3.14146743260056        1.41324961056693       -0.60601018682692
C            3.64224636466276        2.15310309581505        0.48915341066724
C            4.39723309189647        3.28207820570676        0.32896785171272
C            4.68518698337355        3.72918019440212       -0.96482522966313
O            5.38829861090179        4.79035731502843       -1.46631056396928
C            5.28049060505565        4.66799912454414       -2.83768167458354
C            5.87692542002178        5.60964549985493       -3.75897447826942
C            6.63232523932277        6.68518662092265       -3.39154455420002
C            7.08840852681055        7.45773669566986       -4.48190146474441
C            6.68563776943017        6.98450832136212       -5.69696180413829
C            7.00219020513245        7.59895729661961       -6.96709910232661
N            6.58945895998554        7.12515935090967       -8.13243396628090
C            7.07774215461462        7.97736043801362       -9.06358643963079
C            6.94179161192782        7.97165945811435      -10.45973018237159
C            7.52609292451157        8.96559973956880      -11.21083781183891
C            7.39596667848996        9.01367878945822      -12.74087326222156
C            6.57412950957371        7.82763771798030      -13.28160261488866
C            6.68977889651881       10.31925086982752      -13.14957780519547
C            8.79794829718106        8.96046104679650      -13.37480831791965
C            8.26036618363521        9.97680072718102      -10.55073419409485
C            8.41131146561311       10.00617060508053       -9.19183004571394
C            7.81673514525875        9.00267414142194       -8.41975731865254
O            7.76207012656253        8.74680310513461       -7.07675750805982
S            5.73233913156273        5.54273569441109       -5.49237225002755
N            4.57666648685565        3.61413341662584       -3.22072963501841
C            4.18800149270441        3.00316596536013       -2.07733845358995
C            3.41760563317875        1.84723221215236       -1.88234433305242
H            0.39408511698645       -0.31367164248997        0.61473667235294
H            0.43841829572474        1.27243210250579       -0.15446580338912
H            1.25918604662366        1.01410780678226        1.38194163391954
H            2.55027928440295       -1.74934728534750        0.69216722718469
H            3.38737468324852       -0.41262462065377        1.47153196650284
H            4.03759832574015       -1.11191589602161       -0.00819766311744
H            1.30453292336027       -1.44125496063256       -1.43764014948898
H            2.76250674748843       -0.84725959360637       -2.22067985614477
H            1.27417173257155        0.10838630578494       -2.26642578576527
H            3.41810046574495        1.81500991901642        1.48558844378152
H            4.77244269702073        3.83535594750176        1.17082615148874
H            6.84935962329391        6.91406933692701       -2.35937996609006
H            7.69389906936046        8.34520777109477       -4.37877804717404
H            6.37402597243171        7.18149212078297      -10.91152651124680
H            5.56397182082098        7.83195566790888      -12.87381482579128
H            7.04512542301736        6.87781752395866      -13.03103955966657
H            6.49090489270782        7.87814641825848      -14.36676144802425
H            5.70414757013000       10.38296409883584      -12.68986785145225
H            6.56243257173513       10.37200174273139      -14.23027328613583
H            7.26055402006716       11.19288493767904      -12.83874520858566
H            9.32089394058641        8.05294326046582      -13.07522333737971
H            9.40418817431834        9.81198772524115      -13.07000246618391
H            8.73430351262603        8.97034622865812      -14.46237844058396
H            8.71461243553143       10.75230372881633      -11.14204008024648
H            8.97109082641552       10.78243685227815       -8.70232427972208
H            3.05863645315899        1.32371744572822       -2.74718724205834
