85
 energy: -16.542105725695 gnorm: 0.000865450822 xtb: 6.6.1 (8d0f1dd)
C            0.43408717411465        2.49937626076045        0.76835835787126
C            1.52959101155851        1.42373015270016        0.63515194193313
C            0.99666518292547        0.11033307683717        1.23768923359796
C            1.83284452386811        1.22314559411193       -0.86119271744319
C            2.81879994921236        1.83023201549297        1.36549380945917
C            3.92533271913926        0.96132755000942        1.33928417894635
C            5.10585353206131        1.25730218904654        1.97091110766619
C            5.22296638520449        2.46049557994611        2.66778438456689
O            6.28680153527705        2.98618090314956        3.38008884520339
C            5.88475910262353        4.21273511205167        3.88395556163520
N            6.61588552743494        5.04345266523574        4.63075867609473
C            5.98773043691521        6.16611079631461        4.98901486757463
O            6.51027674046732        7.19134226373954        5.75923709534154
C            5.52618590941480        8.15560082081158        5.89296107049143
C            5.54842820206396        9.37527496596106        6.57588441821939
C            4.43169012747144       10.16616859931763        6.56431782477813
C            3.26486421251238        9.78228089409094        5.88040433771656
N            2.11334591948816       10.64931759415742        5.90583323784967
C            1.81282622431927       11.65325302592850        4.96531421061768
C            2.42091081639501       11.98774923711829        3.75873209201420
C            1.93675242370907       13.05917542210240        3.04921378789409
C            0.84864694399608       13.82989736229674        3.50431838638874
C            0.32472251906713       15.04452903551388        2.72213429399270
C           -1.16751199219864       14.84090147279265        2.39989219559213
C            0.50145801358479       16.31171523880153        3.57910318323958
C            1.08304223068953       15.24465886617270        1.39588044580663
C            0.24975595622690       13.49279705181548        4.70320155340198
C            0.72531538347052       12.40497952529205        5.43643476990393
C            0.34125166339912       11.84912677896911        6.71192300081558
C           -0.63661161344468       12.20964764427183        7.64000379060881
C           -0.75610271311558       11.50578209773397        8.82328883687313
C           -1.82574159615064       11.92967494112523        9.84180608130852
C           -1.53430661586189       13.36684967360268       10.31148277166186
C           -3.21481064530084       11.87243986279630        9.17916013767895
C           -1.84067877010978       11.00783850108676       11.07642740788824
C            0.12380401357034       10.43242551079672        9.06610893637943
C            1.09420218594980       10.06552060139283        8.16662912978705
C            1.20792162384557       10.77769974331482        6.97618761504470
C            3.22784497053085        8.58092895220945        5.19982052358703
C            4.35899550277480        7.76701894223650        5.20787828409544
C            4.64743342149554        6.48960150249737        4.62516276787945
C            3.89291461455835        5.62872981224248        3.85261485726753
C            4.54122597390751        4.46638346584401        3.48099562029839
C            4.12485334560096        3.33782870028506        2.70229134142916
C            2.93022120417928        3.02277916732711        2.05432190219696
H           -0.47198391799391        2.19648356212751        0.24364331863328
H            0.76084708229061        3.44695904197391        0.34074236867788
H            0.17063299910762        2.66298507998672        1.81292360144695
H            0.06970984085905       -0.19444787405606        0.75251622331478
H            0.79750379712165        0.22858522818700        2.30245977238636
H            1.71520662988907       -0.69982902363580        1.12039761439070
H            0.92977731952434        0.95568795345880       -1.40935499655765
H            2.56230107554998        0.42924637454250       -1.01592221696700
H            2.23470764146024        2.13702339910072       -1.29810422910338
H            3.84118278800698        0.03171602854775        0.80406199881029
H            5.94442030222853        0.58474811660617        1.94388015643944
H            6.44182815093919        9.66759949401628        7.09769733684882
H            4.42774080963177       11.10726091365408        7.08618927646809
H            3.25667010037433       11.40915386593101        3.40723306497085
H            2.41194843884903       13.31508172980628        2.11931839023619
H           -1.76185228369063       14.75369760829071        3.30826559233679
H           -1.31422152299337       13.93329960987077        1.81501707169881
H           -1.56023252803802       15.67970739217719        1.82573343210962
H           -0.05958080540820       16.24144821125024        4.50998026327999
H            0.15284246994948       17.19559990466988        3.04554908082898
H            1.55080163149856       16.46181767982705        3.83176161523636
H            0.98349687322102       14.37155291245911        0.75153675570762
H            2.14261152588339       15.42758527434331        1.57255609921849
H            0.68859762460128       16.10246359390623        0.85153343738182
H           -0.57356675757134       14.06510032560324        5.08802299111394
H           -1.28157160484477       13.04147322164354        7.42611105827992
H           -1.56281838437297       14.06842491548106        9.47889907064731
H           -0.54671761196774       13.42945307387648       10.76774538492082
H           -2.26791931842412       13.69321836447407       11.04813512420195
H           -3.27983087079812       12.55474143525851        8.33287309223734
H           -3.99597762600685       12.14704229163769        9.88754508919122
H           -3.42661624720461       10.86710272457006        8.81615183039010
H           -0.88689934176927       11.03949929708175       11.60235583632983
H           -2.04752516492872        9.97618290205274       10.79302355494430
H           -2.61324315716977       11.31744331209197       11.77990381288181
H            0.04156231432818        9.88027342391392        9.98498742687542
H            1.76546110106344        9.24822472772734        8.36239506093281
H            2.33914599001304        8.28046394547525        4.67735523425541
H            2.88141201803451        5.84547144793167        3.56415741685389
H            2.11453534192670        3.71855934479696        2.10596883300898
