63
 energy: -14.576188411953 gnorm: 0.000945595379 xtb: 6.6.1 (8d0f1dd)
C            3.15870408233978        0.70340524911712        0.75702602052874
C            3.37645403878845        1.89934096667827       -0.19046983504763
C            3.07269949834934        3.19421107200607        0.58623211680438
C            4.84940976841710        1.89958192368793       -0.64069841351322
C            2.46840826360545        1.82331557689348       -1.42835766792494
C            1.57196262659002        0.75759054051094       -1.63681805152406
C            0.76903356453368        0.68282827021259       -2.74826238497634
C            0.83505107333304        1.69102302885099       -3.71170593962186
O            0.14793879588018        1.84808938581165       -4.90622184021429
C            0.59258689695484        3.02700987418453       -5.49007327369658
N            0.19140402317274        3.54500188086726       -6.65588494333590
C            0.78320446681848        4.69753939754798       -6.98849734282234
O            0.55874130492042        5.44513675238916       -8.13615204273735
C            1.38133552635355        6.56099687324311       -8.07438891667464
C            1.54178187393259        7.62098037853373       -8.97280424605479
C            2.42915530420137        8.62189422583007       -8.67738399931345
C            3.18290497418363        8.61462922747341       -7.48785396767256
N            4.10215809677096        9.69620493871208       -7.20998983029982
C            3.59853421666065       10.95847275296201       -6.81861738633043
C            2.23078069243544       11.16231704645839       -6.63964796379061
C            1.73863912802743       12.39066698975527       -6.26493214210118
C            2.60486994498149       13.45192986985565       -6.05578970469683
C            3.95796242473707       13.27412085248004       -6.21975457419163
C            4.47551682382084       12.03791261152831       -6.59725766502566
C            5.91234658002793       11.86847471493519       -6.75499415365544
O            6.68911995996811       12.80183637494463       -6.56553802362412
C            6.39568402818980       10.55192777752813       -7.14440043401791
C            7.76053671851006       10.33339224275377       -7.31126632907377
C            8.23622483396062        9.10027071715404       -7.68850398317247
C            7.35194710016851        8.05646676143063       -7.90923940708247
C            6.00017677176753        8.25283928130797       -7.74969111974376
C            5.49322240746738        9.49313134447298       -7.36378345302240
C            3.03546091853816        7.57138541104722       -6.59121487607099
C            2.13925733201572        6.54615613186882       -6.88723639624296
C            1.76378048115001        5.35395101563783       -6.18908918291038
C            2.18074648089155        4.81689299224963       -4.98636408668728
C            1.57227012535141        3.62357298065563       -4.64452823961070
C            1.72416851009136        2.76178347045397       -3.51177679770848
C            2.53398785336985        2.82493501026557       -2.37693387475533
H            3.81078973219218        0.77672070446815        1.62821816932676
H            3.38274218594177       -0.24002587059039        0.25804856195969
H            2.13009305538843        0.67047763908305        1.11807154817261
H            3.68914435361398        3.26559404243334        1.48297371326856
H            2.02659552381568        3.22325338985117        0.89290258746725
H            3.26782203962869        4.07704055399970       -0.02261849098100
H            5.52084368491737        1.93461200500977        0.21788450194204
H            5.07096698209579        2.76036414546152       -1.27121785870956
H            5.07770388756589        0.99904422855614       -1.21160085399260
H            1.51001398020116       -0.02859265937924       -0.90533446303812
H            0.08896699163306       -0.13714053982620       -2.89600091984074
H            0.96554889526568        7.63059203956316       -9.88068248301589
H            2.56621451201767        9.44340064162589       -9.35914187822377
H            1.55755753866799       10.33815587280981       -6.79716038048250
H            0.67726149181162       12.52858398235493       -6.13356376278825
H            2.21761795571849       14.41457615330079       -5.76271773048714
H            4.64383817011578       14.08775204316293       -6.05621068845771
H            8.43488888426425       11.15493285667312       -7.13963312798431
H            9.29579426134809        8.94528606121508       -7.81437832576000
H            7.72456095791573        7.08959650367807       -8.20755932669490
H            5.31475723834869        7.44275493228210       -7.92612334370499
H            3.60380942218159        7.55594879756884       -5.67994167247733
H            2.92096325720304        5.28836938449364       -4.36704753062760
H            3.20599748687015        3.65459717990844       -2.25673189326009
