81
 energy: -18.641712712924 gnorm: 0.000813905330 xtb: 6.6.1 (8d0f1dd)
C            2.85673391344388        0.54923045446756        0.66017479759016
C            2.97260154306321        1.86328554910934       -0.13704989382762
C            2.23090809269257        2.96918695209606        0.63553114929197
C            4.46528786455377        2.22561339226298       -0.25386190269039
C            2.36727252272639        1.73579028718726       -1.54401342723558
C            1.73374904588465        0.55702511732286       -1.98325476301412
C            1.19599569031471        0.43847475342861       -3.24435159488768
C            1.27456062091003        1.51591745469317       -4.12820504865536
O            0.83343531458303        1.64939423854738       -5.43656566703884
C            1.17911512494201        2.92599730784480       -5.86254489022573
N            0.94909466680470        3.45803567110466       -7.07075171289435
C            1.39798081569196        4.71138276384799       -7.22595953545977
O            1.31108218938704        5.48768834712154       -8.37412109531184
C            1.91175807393180        6.70850493031564       -8.09729151066190
C            2.10465745693103        7.83208132325375       -8.90716299220234
C            2.74045061509484        8.93382183531032       -8.38884522247996
C            3.19844240823865        8.96361160134603       -7.05920552319800
N            3.84137560420691       10.14617982712294       -6.54569423510213
C            3.34953304061142       10.97831638537986       -5.51976992282953
C            2.19136937273857       10.89012535975945       -4.75091163562457
C            1.94749866129435       11.86545473187310       -3.80809781817339
C            2.83979814092925       12.92730493089431       -3.61955568538543
C            3.98749690075647       13.03077988900865       -4.37057077696671
C            4.24927584019796       12.04816427223154       -5.33428461941085
C            5.32812649128549       11.86795967853179       -6.26710840180854
C            6.48657689445602       12.60923004986960       -6.52066376472473
C            7.36766263456316       12.17197720162140       -7.49414754538355
N            8.56994987931972       12.91556444433549       -7.76521363115059
C            9.02140371669773       13.33730942693766       -9.03427778279378
C            8.46603958773244       13.17773009939633      -10.30234593581897
C            9.12810286903817       13.70774695922529      -11.38898248070560
C           10.33468843656985       14.39881638232428      -11.23303293542365
C           10.89440236917335       14.57317326298944       -9.98902282901305
C           10.23312874629962       14.04050844661906       -8.87362438114131
C           10.53797352833290       14.05497805361904       -7.46940211109829
C           11.60425312870448       14.59960650529548       -6.74091684828327
C           11.62084099535611       14.43601528086156       -5.37557143176164
C           10.59949134678321       13.73849170298973       -4.72085656882884
C            9.54432610176028       13.19737155669374       -5.42307697589289
C            9.50588625302019       13.35907041138139       -6.80661628564855
C            7.08827850881552       10.99483623739884       -8.21430403204128
C            5.94933769610428       10.25927026469128       -7.98055608471653
C            5.05902094399140       10.69567664455676       -7.00174129063237
C            3.01637465037404        7.86088491842947       -6.24558079144365
C            2.37788524939230        6.73240296291989       -6.76661390050887
C            2.05771255763411        5.45743029753071       -6.20748055867997
C            2.29360053360967        4.90864031295646       -4.95679321674229
C            1.83854976300079        3.60833601099979       -4.80028183942044
C            1.89841025302304        2.70234582768927       -3.69736984213660
C            2.43913937107420        2.80900123311030       -2.41185743329457
H            3.30647371765353        0.65517862451234        1.64816663986999
H            3.37090252980974       -0.26600527555742        0.15005781970002
H            1.81347816454653        0.26638227019256        0.80379046159299
H            2.63339979240321        3.07854926326512        1.64321130290893
H            1.16897377214385        2.73560249749324        0.71865966596624
H            2.32221781909507        3.93209926683127        0.13280587017025
H            4.92863526768909        2.29310693526592        0.73110249639672
H            4.60446259048634        3.18463261391071       -0.75307937481118
H            5.00104799728568        1.46911332209487       -0.82836010402398
H            1.66636816568022       -0.28416032509774       -1.31643436535852
H            0.71822321166068       -0.46890779105613       -3.56834968125890
H            1.75239488923752        7.81364134746810       -9.92293912997840
H            2.89154398576588        9.80859308867992       -8.99741492508626
H            1.51075182327198       10.07135803156142       -4.90489866611418
H            1.05431530019938       11.81074533478281       -3.20686493038786
H            2.62261805240707       13.67603838889236       -2.87480148836114
H            4.67843053699657       13.84438394672186       -4.23341321784876
H            6.68682255126736       13.51071722394375       -5.97251167649556
H            7.53382192212582       12.65335568871597      -10.41503560226253
H            8.70987242307865       13.58869027337377      -12.37557460965134
H           10.83110360987982       14.80161354092764      -12.10140848897072
H           11.81978535126449       15.10688063650278       -9.85900497033512
H           12.38743331912962       15.13101917179418       -7.25335109259570
H           12.43378877471426       14.84911318174750       -4.80037879995354
H           10.63976363090312       13.62121005222458       -3.64989764387115
H            8.76151467261246       12.65175487406607       -4.92666905773162
H            7.79852277785044       10.66879957043849       -8.95395700363699
H            5.73860803039868        9.35796975143490       -8.52854135850753
H            3.36498628830853        7.87276982893404       -5.22981520202710
H            2.79693870793953        5.44470547401526       -4.17394501361208
H            2.90617429816043        3.72941764348936       -2.11373542823184
