61
 energy: -12.959004721381 gnorm: 0.000598377376 xtb: 6.6.1 (8d0f1dd)
C            1.11986380624288        1.41162296338998        1.96744759674117
C            2.28312334479431        1.24920840307689        0.97200102297344
C            1.87196238124288        0.21467045102574       -0.09334391699707
C            2.55206180503480        2.59075059394379        0.26494733514833
C            3.54367619232739        0.81488592180390        1.73508694852308
C            4.18311147411452       -0.41489917190546        1.48825118580491
C            5.30476303443140       -0.80661995191655        2.17349420435013
C            5.83809545401347        0.03443458651281        3.15107168516509
O            6.93934899954945       -0.12537204078511        3.97400756269441
C            7.02912761155912        1.00133615137933        4.77513918728524
N            7.94567274759877        1.23982032181921        5.71644571360415
C            7.80155323504570        2.40702752352307        6.34896902425504
O            8.60027098036308        2.89984774147084        7.36727142971534
C            8.09168049056605        4.13291041675351        7.73958190735064
C            8.51914233904034        5.02962945414966        8.72360080386818
C            7.83422516613532        6.20151183107942        8.90283341207114
C            6.71364030807401        6.52677599497667        8.11829624103511
N            6.01831250364642        7.76801939270150        8.33604251620821
C            5.86551637538101        8.80630512673760        7.39854358671990
C            6.31938491494634        8.92418329841461        6.08543911444570
C            6.03353678829566       10.07310708786091        5.39060366977969
C            5.30289306020156       11.10956056046967        5.98030442048205
C            4.85017290170504       11.01009003873295        7.27342365678759
C            5.13342865031577        9.84820377242198        7.99401482748850
C            4.82130070856667        9.43651319738913        9.34152215934506
C            4.12057748768133       10.05530374904269       10.37863159594694
C            3.98516798288759        9.38795879566179       11.57168523590502
C            4.53482866587592        8.11470503567587       11.75181361513890
C            5.22807750160241        7.49383493298456       10.74269245315237
C            5.37651311319174        8.15838264372948        9.52596171423754
C            6.28019102645024        5.65175169072452        7.14224027992010
C            6.96647639266390        4.45453238941202        6.95726925453545
C            6.77173356078008        3.35126930384641        6.06570492797981
C            5.82357586164403        3.10324146413731        5.09384786789778
C            5.96809845503471        1.89351713850796        4.44374427876706
C            5.20907797062873        1.26500501641608        3.40490303735242
C            4.06815390898406        1.64904306459191        2.70189154607259
H            0.20624283032222        1.71055350931809        1.45476774098324
H            1.34402050125431        2.16837286132936        2.71772119193853
H            0.92437502409998        0.47405605847774        2.48668062805484
H            0.98390632336536        0.54607567175384       -0.63058292524021
H            1.63958613030559       -0.74727896298526        0.36205047110789
H            2.66523056199287        0.06985277624824       -0.82585083632238
H            1.68272297013350        2.91033113017626       -0.30865242610010
H            3.39451774390780        2.50213156201719       -0.42005312492507
H            2.78442294211048        3.37745784965059        0.98097629367909
H            3.78340640574562       -1.07535406074960        0.73999745815762
H            5.78426000135371       -1.74892722907650        1.97814344387892
H            9.37754567383065        4.78110435781011        9.32124063269395
H            8.15130721293607        6.90468191703664        9.65292690810622
H            6.88507327641508        8.12387540952427        5.64286231111632
H            6.37886317414415       10.18012714455598        4.37549921905835
H            5.09410652541760       12.00032004320995        5.41113062051492
H            4.28984574172729       11.80390675394292        7.73477152234714
H            3.69926707118535       11.03402183197139       10.23184156153897
H            3.44578085106679        9.85080331825710       12.38151191843467
H            4.41088791009247        7.61371896156080       12.69775164309006
H            5.65113991823827        6.51343188959010       10.86989530672510
H            5.42149223475591        5.88906201429139        6.54287791326408
H            5.03336399950280        3.79343384527361        4.86555764868323
H            3.60787777548291        2.59356245706464        2.92437377746798
