50
 energy: -11.416219251976 gnorm: 0.000912331671 xtb: 6.6.1 (8d0f1dd)
C            0.88166276218118       -0.05824607950802       -0.07628264636557
C           -0.33894620890617       -0.04544238396767       -0.04956504951841
C           -1.75021278965992       -0.00900778557708       -0.03027151655784
C           -2.41817791400989        1.21022948682651       -0.02423296539479
C           -3.80973092990214        1.27830043239189       -0.01513289243301
C           -4.51574432098036        2.52431972197142       -0.01434187514411
C           -5.86578959563628        2.56431431883452       -0.01457211350968
C           -6.64437818085571        1.36230798465354       -0.01542845803639
C           -8.03755150510308        1.37674033449937       -0.02434902840850
C           -8.77643837741640        0.19913064497858       -0.02961797240194
C          -10.18743094697042        0.24492679648895       -0.04909067811047
C          -11.40691138306521        0.29754383149662       -0.07851777394033
C          -12.81648014543791        0.36966869351957       -0.12580875775523
C          -13.58807304483503       -0.78693343513246       -0.16320542508997
C          -14.96445519394536       -0.71442695136149       -0.21125158941657
C          -15.59225460464316        0.51443844283720       -0.22236446076644
C          -14.84110622779417        1.67143265050320       -0.18564386490299
C          -13.46467430495606        1.60026992692239       -0.13840076039114
C           -8.10953157547790       -1.02084904012358       -0.02218405200567
C           -6.71766445758079       -1.08976072834829       -0.01339346362968
C           -6.01102153254009       -2.33556886102262       -0.01088667787117
C           -4.66079462925410       -2.37558486369733       -0.01103541873635
C           -3.88160265444226       -1.17381390800533       -0.01373659019572
C           -2.48806599950122       -1.18742885912783       -0.02304570895544
C           -4.55169447128366        0.07299949068410       -0.01186373070387
C           -5.97499941162469        0.11520439764587       -0.01189831667338
C            2.29321279106837       -0.05418553862303       -0.11931544981307
C            2.99799573204571        1.14475872217841       -0.14127377504525
C            4.37635555491363        1.15146799483839       -0.18409903045458
C            5.07304688047734       -0.03948925424620       -0.20538300882367
C            4.38878072584055       -1.23769004494117       -0.18431589653005
C            3.01029189205214       -1.24572785733220       -0.14234429651254
H           -1.84557516519168        2.12034130788460       -0.02952524171895
H           -3.94642622440973        3.43769895137696       -0.01561438715105
H           -6.38002925385408        3.50980378395752       -0.01584862434808
H           -8.55531079588810        2.31912991671655       -0.03030746272938
H          -13.09416819901833       -1.74378252815550       -0.15421057383998
H          -15.54999906856824       -1.61888668253642       -0.24063923025051
H          -16.66796728278872        0.57051633565411       -0.25859710449668
H          -15.33035992379154        2.63181275812881       -0.19353241724957
H          -12.87448606803800        2.50058769038340       -0.11282086809423
H           -8.68285800802089       -1.93047459563722       -0.02615374152494
H           -6.58020354831702       -3.24903981342490       -0.01092667463465
H           -4.14671603010003       -3.32116942363345       -0.01093799500913
H           -1.96956984703071       -2.12937950145333       -0.02738749299898
H            2.45029161201891        2.07175471788057       -0.12433995408210
H            4.90936382463592        2.08816743873059       -0.20125909455132
H            6.15032980941003       -0.03372965281296       -0.23724101997914
H            4.93213760046983       -2.16842364450484       -0.20024360622558
H            2.47232063571423       -2.17842533881217       -0.12894126701985
