31
 energy: -5.685783772381 gnorm: 0.000696971925 xtb: 6.6.1 (8d0f1dd)
C            0.88670637632278       -0.08316442506812       -0.02399041650812
C            2.43153085948494       -0.12886633571720       -0.01723178711351
C            2.81982900223747       -1.48857180396505        0.58934280465558
C            2.95405621213939       -0.10893456845195       -1.46776617863011
C            2.96278907640801        1.13319039248444        0.71914534575202
C            2.51201936191558        2.32060457951069        0.19521425208516
C            2.82951080794444        3.56225428641777        0.73834515679671
C            3.61064718083947        3.64116072166512        1.84470849054207
C            4.12393929149267        2.47932175751759        2.44440012656850
C            4.95230101833886        2.57860415840942        3.61718028674294
O            5.23533574508556        3.76607746084506        4.25931116544677
C            5.50107634791226        1.42755961475970        4.14625189887951
C            5.26068806415411        0.19318322293402        3.56840990603238
C            4.45915190675317        0.08281177874836        2.46966825318978
C            3.83456191321930        1.20410111142796        1.86753923254982
H            0.47338265794659       -0.95897709412289       -0.52342119423554
H            0.50398219849889        0.79407417292324       -0.54211705729948
H            0.50032979866384       -0.06483327522723        0.99455986237332
H            2.29773897582209       -2.29426178470682        0.07262163323375
H            2.53503065788790       -1.55182082120091        1.63954836667375
H            3.88319151796252       -1.69036605280712        0.46502627695444
H            2.60021490432802       -0.97815760561553       -2.02150389337857
H            4.04353688219457       -0.12100101572277       -1.48269873023976
H            2.62381781855712        0.77954171483392       -2.00356785746052
H            1.88228214820942        2.30501560383560       -0.67703629164003
H            2.44826305332427        4.46065188254716        0.28015603385827
H            3.84904373935723        4.61047360729258        2.24289379421760
H            4.74825265627169        4.51399288207382        3.85390441922303
H            6.12444452388986        1.51465028077107        5.01825935329400
H            5.71563738834879       -0.68745069094326        3.99278377854981
H            4.34730791448920       -0.89419375544867        2.05305296888641
