30
 energy: -5.595814352292 gnorm: 0.000489229608 xtb: 6.6.1 (8d0f1dd)
C            1.10005139601730       -0.11571224458821       -0.18401952873546
C            2.62495141017986        0.04468562616289       -0.01976720691878
C            3.39624648548858       -0.65607899492860       -1.15692459246370
C            2.92507258606226        1.55568342531801       -0.15550339609769
C            3.07601256570708       -0.50789898133769        1.35012627229236
C            3.64818709445313        0.34826797490103        2.26961935388169
C            4.09264027008557       -0.07979903749650        3.51331972904858
C            3.97362032827748       -1.39522769915495        3.86738254733010
C            3.40485867929829       -2.30748469861351        2.99184577969744
C            3.29889467470491       -3.70358322652470        3.40817255521535
O            3.71299988526788       -4.06786646114200        4.51022166220058
C            2.70231534990092       -4.61921299411086        2.49465151080260
C            2.24972119944486       -4.19746771026075        1.27518174770442
C            2.35668978492204       -2.87539833903444        0.88581620686952
C            2.93674847857982       -1.88692896561921        1.71666121057825
H            0.77304931077606        0.26768669932297       -1.15002406044371
H            0.57580044269109        0.44363980046794        0.59026771164415
H            0.76995207149192       -1.14793858824371       -0.11253166104741
H            3.08155698976589       -0.27712673128655       -2.12851866645813
H            3.25824896517238       -1.73293218600192       -1.16556526554866
H            4.46522134321125       -0.47077215809344       -1.05801797733385
H            2.61071713405008        1.92325754895846       -1.13193532955736
H            3.99154949727511        1.75720368167818       -0.06110272781922
H            2.39006934250216        2.13491137712363        0.59627081205880
H            3.76441273510418        1.38975498646437        2.03162375840278
H            4.53389254632899        0.62411705520759        4.19988557998978
H            4.31565821512219       -1.74748411206068        4.82594269010429
H            2.61970413684326       -5.64818032594061        2.79403007046196
H            1.80014158766537       -4.91124575685509        0.60411256914255
H            1.97632549361031       -2.61071896431186       -0.08056135500195
