61
 energy: -12.964308972782 gnorm: 0.000845412043 xtb: 6.6.1 (8d0f1dd)
C            1.02580390333799        0.93782593214556        1.22738813731994
C            2.08884490645465        0.55013167205594        0.18519194143848
C            2.55946132827129        1.80396500078419       -0.57288559266187
C            3.29696039928584       -0.05610405169583        0.92014698386163
C            1.48498666140924       -0.44670188298993       -0.80717898456526
C            0.40672402152709       -0.09555446758649       -1.59240660948734
C           -0.16593607304967       -0.97572261905561       -2.51384958114541
C            0.33106451888802       -2.24211271733456       -2.67650794036709
C            1.41806695145241       -2.63009894356848       -1.89664393501560
C            1.99922735508074       -1.75161825208550       -0.96080835595892
O            3.04980274442451       -2.37899464101414       -0.31366814509066
C            3.16457004439364       -3.65826367061633       -0.82889434941914
N            4.06320855319036       -4.58065116218340       -0.47483959668700
C            3.96849023665490       -5.73180912291854       -1.14322241860893
O            4.77984128066124       -6.84502875318190       -0.99300848835523
C            4.34875112170400       -7.80091526375542       -1.89643227496010
C            4.84181056988677       -9.07796628669466       -2.15992728633221
C            4.25120111647422       -9.85150183169499       -3.13991539475408
N            4.77011767665167      -11.15916259152839       -3.43314725067674
C            4.99779184200065      -12.19098955572542       -2.50092746249845
C            4.76445564079150      -12.24887154287678       -1.12749246664853
C            5.07586108430210      -13.40395123075027       -0.45370102608573
C            5.61530834292789      -14.50626686691141       -1.12352316622267
C            5.84809478540382      -14.46735378847830       -2.47691186337153
C            5.53557820911887      -13.30011000727306       -3.17600986743237
C            5.65148565702414      -12.93931599754272       -4.56868854358626
C            6.12911165168494      -13.63058300936101       -5.68368676224706
C            6.12975435434149      -12.99549806457968       -6.90187227091100
C            5.66601729190128      -11.68272786928444       -7.02951076313324
C            5.19233491082301      -10.99050171650143       -5.94244407181018
C            5.17746926502180      -11.62292530562719       -4.69991807301571
C            3.15106610715557       -9.35383574064831       -3.86230404192775
C            2.64623980759868       -8.10430380564775       -3.61819094364032
C            3.24733077820996       -7.32134472761649       -2.63117430180884
C            2.99666366328066       -5.99587379694013       -2.15259043072737
C            2.06362114016736       -5.04324648669232       -2.51110412357948
C            2.16328431505537       -3.85051893613756       -1.82198241120021
H            1.43305253360362        1.63473502816168        1.95909130101292
H            0.67225454729315        0.05601123043767        1.76060157360161
H            0.16558235273371        1.41173604138557        0.75686166965356
H            3.01913989780453        2.52085362198195        0.10659494745246
H            1.72844257202483        2.30218466826397       -1.06982791185431
H            3.29446747616791        1.53960128911503       -1.33232857673768
H            3.72693556882229        0.65094500960468        1.62856792332922
H            4.07234311722316       -0.34546364425270        0.21161943007682
H            3.00483754816466       -0.95258214945378        1.46599215483483
H           -0.00865206077186        0.89205165145204       -1.49248232200560
H           -1.00794043907449       -0.65362056757883       -3.10410136822159
H           -0.09876220530928       -2.93046672942131       -3.38258174074123
H            5.69073200570991       -9.44412376119014       -1.61509164127362
H            4.34311579788134      -11.39894056136066       -0.62099621489975
H            4.90187368528912      -13.46287043749982        0.60809954719253
H            5.85012241676199      -15.39989572328052       -0.56891603948577
H            6.26141417650571      -15.31154800582261       -3.00001147080244
H            6.49015375181708      -14.63812679368940       -5.57588551429986
H            6.49735560397705      -13.51413002122810       -7.77204185614961
H            5.68424889885100      -11.20644114647124       -7.99595542149171
H            4.84393428624886       -9.97698777877537       -6.02991378685264
H            2.70485682188481       -9.98278508486689       -4.61238142165091
H            1.80705079054978       -7.71989884725872       -4.17036703013777
H            1.32481469233914       -5.21321518675873       -3.27140449922857
