61
 energy: -11.846541264937 gnorm: 0.001215076555 xtb: 6.6.1 (8d0f1dd)
C           -0.18762629697724       -0.52313227311063       -0.85420845973992
C            1.32240284059559       -0.65350653199269       -0.58516258073705
C            1.60268999792471       -0.46416745803543        0.91534609716447
C            1.76670367002711       -2.06820879458690       -0.99485372689001
C            2.08096885731033        0.41570643877400       -1.37515352935574
C            1.77222484944035        1.75221862616368       -1.23098359975248
C            2.45695051332264        2.75728513428860       -1.91846077394698
C            3.48247072225434        2.44915575624790       -2.77287951240849
C            3.82485872954297        1.10899771960299       -2.93638265723060
C            3.13926477846841        0.08761115849944       -2.24885217171408
O            3.67756987578667       -1.14486375674478       -2.57984688340975
C            4.70876168655537       -0.93227609407104       -3.47789062622111
N            5.48465894693364       -1.85987532144678       -4.04044176604228
C            6.41325223503967       -1.37373421989686       -4.86605168476383
O            7.34436093312260       -2.10481454601432       -5.55982747938561
C            8.16318838761947       -1.24249609681415       -6.28793662999441
C            9.18248174893069       -1.91483322523227       -7.00860394415834
C           10.28035913489164       -1.50468594846292       -7.66137611273119
C           10.83362953414381       -0.28072698306243       -7.78173892284240
N           12.04776550039078       -0.02512341654430       -7.61270013699652
C           12.65394006692845        1.07672079502374       -7.97754668134389
C           12.20398758633998        2.01760905048309       -8.82484023393457
C           12.84829888659126        3.18963591438756       -9.24132463163233
C           14.04498015353559        3.75582261061466       -8.84841797715625
C           14.90768644633832        3.39103231127025       -7.85904759672506
C           14.85095154314528        2.40835466865857       -6.92183692054075
C           15.69706786185931        2.21806479505157       -5.90255493583097
C           16.76508263960274        2.96461189113288       -5.58945125447453
C           17.63993627532646        2.76291803452514       -4.51583481688114
C           17.59611356137599        1.76758810254027       -3.56547975807132
C           16.70112368789836        0.80534511506552       -3.50168168416486
C            9.00623554778032        1.67972295235473       -7.45177282935720
C            8.01517595795883        1.37234417673394       -6.63418915629266
C            7.70098909986865        0.10780386484485       -6.09547907294758
C            6.60246171452174       -0.00387759925047       -5.17040347485352
C            5.78969915700671        0.95309340952531       -4.58876811310050
C            4.83030129558643        0.46281741671339       -3.72452687295820
H           -0.74454015046067       -1.29898994705601       -0.32991251613442
H           -0.39745381040373       -0.61856209898980       -1.91897000497730
H           -0.56966842664673        0.44080212735218       -0.52205538826168
H            1.08693150909681       -1.21935366697562        1.50742573981223
H            1.27014727569725        0.51498202643339        1.25713491133409
H            2.66978887553314       -0.54479163678429        1.11947603967651
H            1.22398963505312       -2.83172084111990       -0.43884814578714
H            2.83188486974166       -2.20466978172230       -0.81131655926104
H            1.59575933861867       -2.23164964586701       -2.05826264402873
H            0.97955531656575        2.03279883192196       -0.55968644599586
H            2.17629153390391        3.78728168053889       -1.77191346721584
H            4.02086425356763        3.21223891941251       -3.30672681625733
H            9.07295261991747       -2.98701658637900       -6.96094180547497
H            6.50387366555112       -3.87263014119594       -4.70298451300384
H           11.24594559139911        1.80737614944862       -9.27417262450171
H           12.32030602710902        3.73711680368960      -10.00956523883991
H           14.34411535844279        4.64424534447060       -9.38434298815548
H           15.74577456396576        6.64241221534800      -11.03278770689905
H           16.96399128289402        3.80800092182216       -6.23159293355907
H           18.44518952620266        3.47623298533164       -4.42281295223130
H           18.35773713065144        1.76774237575589       -2.80138884073656
H            9.74405942448770        0.95548412759138       -7.71360969370603
H            7.36758755997320        2.18476058997054       -6.35080976870225
H            5.89652890085689        2.00420156946751       -4.77774452605180
