106
 energy: -20.911723018524 gnorm: 0.000266353135 xtb: 6.6.1 (8d0f1dd)
C            1.06938777717687       -0.77122156367393        1.09325803140388
C            2.57109676570456       -0.46211025336186        1.22398204881039
C            2.83864769029301        0.30967717888998        2.52554299157079
C            3.30282766350837       -1.82032643047720        1.33082980806249
C            3.07255042403117        0.35240555873069        0.01249597067288
C            4.33501087736118        0.09448256760543       -0.50352685921227
C            4.82516329718598        0.75548928023476       -1.61153642203726
C            4.05760088586121        1.71048622088651       -2.23793467839044
C            2.81550195484413        2.01135979923671       -1.73787120156010
C            2.30965695497964        1.36597350966587       -0.60958031723078
N            1.03993101864698        1.84258507621333       -0.10631389267407
C           -0.12336564973570        1.74036151946749       -0.93672937799787
C           -1.15668819891273        2.66968934971638       -0.85266220778688
C           -2.26325332984848        2.56667144911636       -1.66504943985968
C           -2.35766566965890        1.53698281109910       -2.57995454370002
C           -1.33663846841762        0.61338970035592       -2.68358859887442
C           -0.22871290906662        0.71545049522197       -1.87311067439870
C            1.03300036443622        2.65697897579130        1.07608877096344
C           -0.00265663529535        2.56295458039863        2.00633783398542
C            0.12175812021613        3.14846772999702        3.24668823675548
C            1.26988722381713        3.83880523924242        3.56708752460702
S            1.52945381368565        4.40744381501770        5.25544573760128
O            2.55985886525791        5.51138974103483        5.25252750265696
O            0.20127995126774        4.43906854903195        5.97311104012909
C            2.35273056373171        2.84506703224216        5.61160088219596
C            1.60763920068662        1.75939915349461        6.01389206792776
C            2.21405523892400        0.52464144631238        6.13885868219560
C            3.55605968473894        0.39508541749024        5.86502413635189
S            4.31731267771627       -1.22758752941414        5.92130321571744
O            3.24448542335420       -2.23605575095277        6.27184081435262
O            5.15221766517477       -1.34476078716432        4.66249916584447
C            5.36395854740881       -0.96364887131089        7.34921269395226
C            6.73204095590765       -1.01837404322250        7.21352276401887
C            7.54090538596665       -0.81097816829366        8.30901909707972
C            6.98410059724887       -0.54062274288031        9.55810190863964
N            7.81199057835970       -0.35305889256182       10.71597528491563
C            8.98032157363432        0.47754502969754       10.65436856801789
C            9.93676413543061        0.41351903789000       11.66456586299334
C           11.05274475852650        1.21849442912781       11.63140531665217
C           11.23207876669561        2.11031948062726       10.59298210961941
C           10.28621413677025        2.19785218545684        9.59110731203122
C            9.17003894092883        1.39265702917760        9.62203925212008
C            7.27911700527696       -0.68259940289988       12.01899321252329
C            6.81648079757394        0.37693499592752       12.79890857500221
C            6.23876610931023        0.16221958265951       14.02517540857047
C            6.10961668339461       -1.12461620705314       14.49570331638382
C            6.57351037369255       -2.18431808560018       13.74265134331466
C            7.18300387991447       -2.00143025227476       12.50911976720166
C            7.69701411603090       -3.22133423581310       11.71935230219931
C            7.94490615594743       -4.42646149191196       12.65387248961783
C            6.65064502620971       -3.63387678369938       10.67082754587156
C            9.03620346755057       -2.90941560857114       11.02747731486452
C            5.59636985693112       -0.49220175237871        9.67330642570605
C            4.79395921806510       -0.70354470248343        8.57477794251294
C            4.31472899970238        1.49244906543239        5.52718756847919
C            3.70870769524592        2.72725349409509        5.40263636814979
C            2.25928690367304        4.02649484502537        2.62711197509332
C            2.14395900005535        3.44021051558737        1.38700099007614
H            0.72243041840395       -1.37712192782008        1.92947390385790
H            0.86704761841608       -1.31896445881607        0.17399048648850
H            0.47564335919668        0.13788698841888        1.08094268410446
H            2.54265267319119       -0.28158778779406        3.39106152384864
H            2.28499498764176        1.24312349432554        2.55793662447027
H            3.89812301411148        0.54118644845864        2.62791966708070
H            2.85513613294964       -2.43842315835509        2.10845557839711
H            4.34998515719432       -1.69061058275208        1.60026055673263
H            3.24704152967035       -2.37040307328871        0.39229401513352
H            4.96059459131613       -0.64232433253154       -0.03313436026286
H            5.80757862866507        0.52240225122542       -1.98838327133657
H            4.43360223705591        2.22670270556621       -3.10608229507648
H            2.21474381012159        2.77453784661660       -2.20111119525460
H           -1.07204503950494        3.48483586120626       -0.15641411304252
H           -3.05565266265400        3.29311338267986       -1.58925137197919
H           -3.22452932235444        1.45715800900956       -3.21514135944081
H           -1.40649544343818       -0.18734957995861       -3.40136596692009
H            0.57237756418764        0.00260963798635       -1.95614734284534
H           -0.87017790241474        1.97204571334666        1.77077700429813
H           -0.64563242430420        3.03067280792821        3.99353573002289
H            0.55024360128296        1.87723935804899        6.18372773896687
H            1.64512577016945       -0.34942856967018        6.40987452153618
H            7.15377806140284       -1.22715631033534        6.24439133415692
H            8.61077743998424       -0.86831111019549        8.21227735566860
H            9.78714058174107       -0.27231012832259       12.47939282881746
H           11.78565495812992        1.15518012200934       12.41889677946803
H           12.10510439116835        2.74157249320909       10.56801611324757
H           10.41959029756016        2.90154616620973        8.78590108882477
H            8.42025404530178        1.48207031481557        8.85659864911210
H            6.90936900278033        1.37588525301872       12.40988713358557
H            5.88139248739215        0.99352799780218       14.61060481550679
H            5.64738806116211       -1.30384371280585       15.45263997953444
H            6.45262455925738       -3.17790274893342       14.13455800925932
H            7.01358228151102       -4.81250098603727       13.06523533899403
H            8.60189300621425       -4.15130967502478       13.47819762482055
H            8.41728630467359       -5.24469412724320       12.11133223845673
H            5.69142974133629       -3.84203592614242       11.14312194662832
H            6.96577879052274       -4.52943114932331       10.13677708201619
H            6.49627568999779       -2.84899789395509        9.93546138169955
H            9.78365787804332       -2.59799100043756       11.75558326396730
H            8.92946593231857       -2.11759786232847       10.29159786128553
H            9.41928132418023       -3.78690048862474       10.50786317610251
H            5.15969893258152       -0.28919763212284       10.63484637955766
H            3.72079875190792       -0.67103643716315        8.66231745449780
H            5.36537470603933        1.36926414559375        5.32298622130052
H            4.27361514759489        3.59338395985265        5.10016243229707
H            3.13947051446423        4.58735067188700        2.89383783648992
H            2.93647190657336        3.53150269972323        0.66559795231143
