42
 energy: -7.391082156913 gnorm: 0.000777247975 xtb: 6.6.1 (8d0f1dd)
C            1.07323882416259        0.30118425919681       -0.93217815622690
C            2.50808472209720        0.17688090335895       -0.40758784201177
C            3.07172949458965        1.55270745830859       -0.04820850412779
C            2.53221328472931       -0.75069151106695        0.81324478783783
N            3.37372245788187       -0.39466663514341       -1.47570050848940
C            4.56817407860393       -1.07861737092721       -1.23506858876514
O            5.03516255299102       -1.37510317232358       -0.15706307246947
C            5.16377104548506       -1.35467585810757       -2.54958086586315
C            6.31222284396008       -2.03757530293552       -2.88982479946004
C            6.66170746606719       -2.16141001907917       -4.24391215084317
C            7.82838659667671       -2.85735698349182       -4.66067033879089
C            8.15054396212112       -2.97149564102472       -5.97336194347577
C            7.33515165611043       -2.39891142233371       -6.98922446161168
C            7.64506761121000       -2.50542475509424       -8.34885996229971
C            6.83051026381342       -1.93770438551675       -9.30449529662902
C            5.69119678667184       -1.25093500905774       -8.94555295732991
C            5.33158994672224       -1.11314498871422       -7.60075375673146
C            4.16107572600426       -0.41109294611495       -7.19472342265225
C            3.83459539458841       -0.29687471522476       -5.88395155420261
C            4.64934576202931       -0.87307302509836       -4.87949660542118
C            4.34259187172489       -0.78308736619792       -3.51459149907669
C            3.21622381809662       -0.14003326755126       -2.84140652307354
O            2.33576389763768        0.49763467126934       -3.38069532787756
C            5.82631701417534       -1.57655284332425       -5.23906944322102
C            6.16515023765891       -1.69573402733494       -6.61216826456551
H            0.40871223904324        0.72735560288637       -0.18209306142858
H            0.68846782659833       -0.67577625697550       -1.22108160569013
H            1.04665517150506        0.93459242851217       -1.81886528281796
H            2.48378798784918        2.03190709872750        0.73339044060025
H            3.07449452151344        2.20073727041375       -0.92391789990102
H            4.09979479181415        1.46052354459604        0.30060365742809
H            1.91631147905804       -0.36172645818198        1.62270875987601
H            3.55171374582001       -0.87052091507320        1.18051685211554
H            2.16731945546008       -1.74133038894348        0.54606015441661
H            6.92360258779911       -2.46720716799498       -2.11670511755781
H            8.46007000103801       -3.29968550824457       -3.90960080927293
H            9.03893153199122       -3.50460892775055       -6.26573341986291
H            8.53220289042608       -3.03914357171788       -8.64379689155522
H            7.08816284429769       -2.03222871366612      -10.34714150261826
H            5.06425652422742       -0.81254647802505       -9.70292020954699
H            3.53342374267202        0.03123927535368       -7.94893987675342
H            2.95046534307770        0.23436311961305       -5.57192313005320
