38
 energy: -6.912401733062 gnorm: 0.000596611307 xtb: 6.6.1 (8d0f1dd)
C            1.18099019778345        0.04395616087120        0.13743073882356
C            2.65723575485016       -0.07227858452766        0.00126995965590
C            3.32836150016590       -1.31131622895823        0.47124347143560
C            3.34725754281529        0.95148693255063       -0.50543843555410
C            4.80218848057641        0.97535910026116       -0.68614125460616
O            5.47696805394440       -0.01130678065981       -0.47837133700552
C            5.42705634247332        2.24102838071275       -1.12576612578053
C            4.96203321488667        3.46551872598001       -0.66439669015674
C            5.55462563671715        4.65311052227801       -1.04404898359286
C            6.65300274201784        4.63120060936902       -1.92734328576929
C            7.12166701696560        3.39626041695908       -2.38322726200577
C            6.52324461998338        2.21926283893602       -2.00812684045041
F            6.93645574884103        1.05845361440094       -2.56189824310411
N            7.21772264355875        5.81336445872228       -2.35779483437178
C            6.59079447785200        7.14928167696102       -2.14749178290475
C            5.57198973918769        7.39086811877787       -3.26439454435418
C            7.67702117585139        8.22823336039059       -2.17648168359076
C            5.87126313669031        7.15912726028442       -0.76867996033474
C            5.05371527467192        5.92397308949871       -0.52260789571205
O            4.01461582651635        5.98671423249207        0.09559162803218
H            0.75186759184934       -0.84182466116623        0.60635067774495
H            0.71051920566826        0.16623703748685       -0.83869692229628
H            0.91502545422444        0.90581549630756        0.75042751167453
H            2.63745570713928       -2.15329689406673        0.51442619455825
H            3.75403337921418       -1.16444573454348        1.46407126499153
H            4.14559455441887       -1.58171892464029       -0.19910671067297
H            2.80389102081323        1.82227590621140       -0.82457681554819
H            4.13856824182646        3.50537786927593        0.02607871603111
H            7.95203382849551        3.36057142312233       -3.06263290477677
H            7.93355289344502        5.81403111407882       -3.08085713861431
H            6.05427832463475        7.35709842781821       -4.23984471150933
H            5.08961202039899        8.36098234571040       -3.15393965634647
H            4.80015364007108        6.62292149447878       -3.24490322023318
H            8.17966276372828        8.24662147515653       -3.14212698118750
H            8.42754773134001        8.03560256890094       -1.41157724074778
H            7.25198533539851        9.21478498170806       -1.99660588540306
H            5.21942614544727        8.03381567878930       -0.69676046066050
H            6.61013303553843        7.25533249007073        0.03074764434274
