40
 energy: -8.095588259535 gnorm: 0.000851198200 xtb: 6.6.1 (8d0f1dd)
C            1.70685540721574        0.55047180367305        0.88161413904561
C            3.10956549373377        0.33077083749087        0.43725762223499
C            3.50839787908295        0.73070286201663       -0.93877221734150
C            3.99539833240385       -0.16838036903075        1.29308349788983
C            5.42071574940569       -0.42423758494407        0.98545258399371
N            6.21579040936439       -0.56989384448310        2.19175600610584
C            6.12246035736920       -1.77733026451534        2.89393177940933
O            5.40538927555335       -2.67952221532532        2.50180734817091
C            6.91069552784473       -1.91520523078023        4.12339720015363
C            6.87887517758578       -3.08902992184831        4.84342216417735
C            7.61457817245822       -3.23133976093898        6.01184590889760
C            8.38777881657879       -2.19827339158340        6.47133532644456
C            8.44355482266701       -0.99356369420988        5.76747103181871
C            7.70230614130498       -0.83833123096883        4.57663301596533
C            7.75196717162026        0.39566373455301        3.84183236067040
C            8.51505418139112        1.44070634507211        4.28121189924226
C            9.26382744714276        1.31231781160115        5.46863188501328
N           10.08309836749766        2.19510836297781        6.08537967425573
C           10.53325074958108        1.57117575570369        7.15229262815437
C           11.46342459372323        2.18943269022965        8.12264842056576
O           10.04879382856494        0.29441369569193        7.28959712318832
C            9.23502863555263        0.11240343382414        6.21478800678399
C            6.97450397575947        0.53053276849905        2.60865393305775
O            6.98537794246640        1.56647357736597        1.96836001387326
H            1.05451270778376        0.79500629367209        0.04321406358798
H            1.65315313263479        1.37153426935734        1.59739609499658
H            1.30707645894947       -0.34292483523703        1.36271563469120
H            2.63898422015165        0.95602372792307       -1.55657240088578
H            4.06361027591477       -0.06745550080948       -1.43243146272075
H            4.13951840211728        1.61978064384710       -0.91582573809415
H            3.66570695916170       -0.43827606305499        2.28157264008281
H            5.84732526604739        0.39975844201302        0.40399227211909
H            5.52747956897739       -1.34112005751724        0.39654610802543
H            6.26736786410583       -3.89610222746870        4.47741563523558
H            7.57538995125110       -4.15879563416807        6.55891551546218
H            8.96151191037176       -2.29558283518863        7.37671516340599
H            8.54313852420707        2.35621550894566        3.71996058075545
H           11.95317033676017        3.05777966724020        7.68362894042557
H           12.22929049547048        1.47550443247572        8.42288892266225
H           10.92643547022653        2.51084799789818        9.01415667848001
