63
 energy: -11.192151506757 gnorm: 0.000345641676 xtb: 6.6.1 (8d0f1dd)
Br           0.65771146908860        0.22145450132528       -0.16811366384195
C            2.54046962576393       -0.08565735521511       -0.01449004414400
C            3.18311778643543       -0.47991946384684       -1.33104517425724
C            4.68886446452849       -0.73041212066953       -1.21569629583595
C            5.33018539457702       -1.12971106849012       -2.54406336359804
C            6.83171887480535       -1.39085676040394       -2.42886251423542
C            7.46813087219909       -1.80527655169163       -3.75509414350255
C            8.96452108223588       -2.09368077913476       -3.63747811545622
C            9.59033756974289       -2.53781312031821       -4.95915861538728
C           11.07661606763298       -2.87166298578155       -4.83702609317521
C           11.69001374700857       -3.34328230360058       -6.15475031420047
C           13.15796683218094       -3.74199697044161       -6.02287337723288
C           13.75875136245704       -4.23208047036986       -7.33225753682081
O           15.10274301792548       -4.67002102492173       -7.16860955888914
C           15.68549023531911       -5.22513413487497       -8.31302615557701
C           16.95099754104460       -5.79939184930590       -8.16699395983296
C           17.62141088594002       -6.38294027762212       -9.23450185740172
C           18.91674573089110       -6.97859650882120       -9.09333798547045
C           19.54820533927437       -7.53886351358203      -10.14764741533711
C           18.94866992933742       -7.55868127007255      -11.44828581574080
C           19.58053138176456       -8.12696353492998      -12.55463555425736
C           18.97156805720867       -8.12619223522063      -13.79310063519861
C           17.72334931119974       -7.56356282352727      -13.96608177472841
C           17.04801265177547       -6.98183949056152      -12.89286460349637
C           15.75299200159760       -6.38626828981868      -13.03206598628398
C           15.12103313584061       -5.82807980877041      -11.97691413440793
C           15.72076107208444       -5.80888899419745      -10.67558118880405
C           15.08796790860961       -5.23913228148779       -9.57666641647226
C           17.00190381467835       -6.38959694759402      -10.50788442923337
C           17.66760251484247       -6.97880198931803      -11.61913132481682
H            2.68247725729083       -0.86288113793185        0.73954196417391
H            2.98835025274733        0.82784201690241        0.38262267116248
H            2.99223778420916        0.30103841891806       -2.07822491334567
H            2.68622435189633       -1.37592032351453       -1.72472457071893
H            4.87507014687493       -1.51006692776729       -0.46733331356183
H            5.18234603228829        0.16631296622238       -0.82212084671033
H            5.14792489981557       -0.34808007204889       -3.29151878384190
H            4.83094633617499       -2.02280522936229       -2.93918411883176
H            7.01280683906022       -2.16744642070574       -1.67572136752751
H            7.33404962861290       -0.49607867472051       -2.04147612242087
H            7.30020322190562       -1.02365812148644       -4.50604275090558
H            6.95391205900338       -2.69126846666928       -4.14728518079869
H            9.13087043527387       -2.86460312670221       -2.87513992103731
H            9.48502166666743       -1.20449336177214       -3.26130815425795
H            9.44723962443393       -1.75792498728067       -5.71686357728121
H            9.05005784445185       -3.41106858071508       -5.34459916950321
H           11.21716230505245       -3.64315363007611       -4.07024024773194
H           11.62438624559201       -1.99740931202717       -4.46493359386873
H           11.58607315072036       -2.55845477592230       -6.91366937465196
H           11.11478032849982       -4.19254624832080       -6.54307959544143
H           13.26579974193280       -4.52610158179181       -5.26499707757034
H           13.74729891640906       -2.89858778695998       -5.64590748724597
H           13.74652190795746       -3.43328351443803       -8.08163731029309
H           13.17564784035693       -5.07130901719440       -7.72715855626101
H           17.40646571757470       -5.78644591104421       -7.19444524395020
H           19.38169809288722       -6.97209625642288       -8.12270974280503
H           20.52098066587110       -7.98244857545708      -10.02400987442671
H           20.55461369357958       -8.56795847087931      -12.43076369448087
H           19.47697536636506       -8.56998851947954      -14.63532431694054
H           17.25742190290839       -7.56805718133288      -14.93645199938293
H           15.28762635171235       -6.39108412884906      -14.00253766262228
H           14.14816578096696       -5.38454114259818      -12.10014259565220
H           14.12103393291615       -4.79547149530165       -9.71781542362902
