38
 energy: -8.579298362512 gnorm: 0.000702124099 xtb: 6.6.1 (8d0f1dd)
C            0.86344329289747        0.05074059068981       -0.07882507229452
C           -0.35719458359892        0.06298169954406       -0.05278567721384
C           -1.76910463851253        0.09675457262088       -0.03874554068693
C           -2.44009466165382        1.31428871731205       -0.03566379230432
C           -3.83222999485682        1.37840987545038       -0.03365610028418
C           -4.54170269565409        2.62257880977053       -0.03518975172645
C           -5.89191464708465        2.65916628016278       -0.03910019893181
C           -6.66777117972372        1.45536018073043       -0.04148023652581
C           -8.06287070155742        1.46485520029763       -0.04741827034128
C           -8.77649236060407        0.28400064537749       -0.05017896118511
C           -8.12710543899058       -0.93339510282825       -0.04715122612037
C           -6.73345957710554       -0.99873687368324       -0.04130216525363
C           -6.02291395089334       -2.24225540113421       -0.03888882306453
C           -4.67259882994596       -2.27802612021071       -0.03513419273242
C           -3.89728795987518       -1.07367495082568       -0.03366758105904
C           -2.50343506111284       -1.08377109086580       -0.03575203000389
C           -4.57064044940524        0.17117192483569       -0.03431430132305
C           -5.99522042454927        0.20939122663084       -0.03846591329949
C            2.27537370011347        0.05493076859280       -0.12601343147609
C            2.97996448878704        1.25404543491956       -0.15016884020202
C            4.35827806396463        1.26046140893314       -0.19610834962084
C            5.05481193147941        0.06957425333772       -0.21927738941206
C            4.37062972239788       -1.12854988531279       -0.19702667424558
C            2.99221673189026       -1.13684663837898       -0.15103321419138
H           -1.86969268750528        2.22571300430442       -0.03766571292520
H           -3.97476713609681        3.53745437928644       -0.03413333898248
H           -6.40812108411966        3.60360105687582       -0.04131992663406
H           -8.57951233506719        2.40915906805462       -0.05027085108256
H           -9.85390171835676        0.31290234302973       -0.05498627813551
H           -8.69367367763534       -1.84860974732474       -0.04965595414102
H           -6.58890955880797       -3.15772131120669       -0.04095449608404
H           -4.15563366693712       -3.22203889542538       -0.03426045809168
H           -1.98220854543600       -2.02415541533035       -0.03786642608425
H            2.43207419743041        2.18085062627472       -0.13251907771193
H            4.89147336470530        2.19704412203379       -0.21335595446512
H            6.13212157988484        0.07530363456354       -0.25454816944109
H            4.91383382719748       -2.05933107559810       -0.21598116605162
H            2.45417666433781       -2.06939731550651       -0.13416445666973
