11
 energy: -1.709700221391 gnorm: 0.000517374234 xtb: 6.6.1 (8d0f1dd)
C            1.08707898018841        0.08300475550336        0.01253290312607
C            2.56418722621358        0.10479390474777        0.02104244338212
C            3.31925803967991        1.28289147165256        0.48130644922749
N            3.23133224528422       -0.97603530137766       -0.40122164094951
O            4.44779642893912       -0.85416174383476       -0.35360942435750
H            0.66862348385458        1.02041829603797        0.37876179608857
H            0.71353726001569       -0.72341409663086        0.64369886294782
H            0.71353405912013       -0.08198201725905       -0.99813956589143
H            2.66108977212793        2.09215181548064        0.79747071189797
H            3.96166697522816        1.65218680170409       -0.31818795990743
H            3.96166552934827        1.01240611397594        1.31940542443583
