89
 energy: -17.167263533605 gnorm: 0.000814658620 xtb: 6.6.1 (8d0f1dd)
C            4.37774786826953       -2.23760728246119       -6.20247005594413
C            5.46911191261308       -2.20103714529599       -5.13283102541257
C            6.50333270118206       -1.11318867391758       -5.42240234742795
C            4.87504424793298       -2.03421589026891       -3.75700189495785
C            5.43612806758003       -2.15124401829238       -2.52927641267968
C            4.32132812591905       -1.46381674378157       -1.80245123482638
C            4.84703038490930       -0.23859521680107       -1.08066333040410
N            4.18720376104057        0.88660479378741       -0.71468856959465
C            5.07737021549828        1.78334007416388       -0.19931124012444
C            6.33518256404812        1.22279862740987       -0.22075760975185
C            7.61013817878929        1.94407829249256        0.15756027019816
C            8.44083200120362        2.26365586463055       -1.08691403409144
C            7.34261005044949        3.21534033824528        0.96905474966426
C            6.20099631225052       -0.08245788203512       -0.78784439481439
C            7.20511316035015       -1.11556652742872       -1.15110662731439
C            8.50850969374776       -1.12523307339362       -0.66158243368682
C            9.41199461967329       -2.08773723090365       -1.05686629628599
C            9.03914762848319       -3.07528674862076       -1.94811047319227
C            7.75345672465611       -3.10884413162313       -2.43593096845934
C            6.83020124444463       -2.15034241505773       -2.04126442900273
N            2.94256756397189       -1.80397176905259       -2.08728209758980
C            3.64958914198261       -1.28852223807271       -3.25591844551966
C            3.41288468225731        0.12405418059598       -3.69015513275078
C            2.44555602175481        0.86123091491028       -3.12204042456051
C            2.07674475769229        2.26423150858378       -3.30859085163777
C            2.77411516343259        3.12788869217721       -4.33232924573947
C            1.82974817781971        3.58362684751773       -5.45295218406024
C            3.59689847717024        4.24668894051045       -3.68015224260988
C            1.09422539623200        2.56371036241164       -2.37809817053068
C            0.33339052297988        3.77679350571052       -2.01177216763661
C            0.48220565557418        4.98482501384989       -2.69458837032755
C           -0.23898455831509        6.10394885519649       -2.36026402582673
C           -1.14781815008203        6.05456989595530       -1.32304341422375
C           -1.32133762815584        4.88770958222902       -0.62342673978458
C           -0.59631297201635        3.73320873369050       -0.93003347527045
C           -0.78509566132562        2.49079058471140       -0.17028929158022
C           -1.58400782144860        2.11488169476397        0.95171646159942
C           -2.56495329710677        2.95907541315088        1.73364519302799
C           -3.89571897603742        3.07353365476553        0.98696073997656
C           -2.78460227368457        2.42823993115274        3.15372568702024
C           -1.35164803653212        0.77369845147724        1.18539701125314
N           -0.43365346594268        0.30922180493554        0.28735265550587
C           -0.07986489754216        1.34170519902033       -0.53517466818444
C            0.84510041988775        1.35526263412239       -1.61785565529367
N            1.64389739484263        0.39922903503613       -2.06399955833602
B            1.82330465755455       -0.96952692939752       -1.40359167425533
F            0.62299485190697       -1.67115953926492       -1.51527943693291
F            2.15866423660494       -0.77786543324844       -0.06710615281182
H            4.79387972266374       -2.41287812326113       -7.19543795491710
H            3.83834409395430       -1.29104341294674       -6.23358883286953
H            3.64837171328135       -3.02224431047131       -5.99685734193104
H            5.98498179412984       -3.17688921343364       -5.13462132700713
H            6.03715436820016       -0.12839210213893       -5.42670992865097
H            6.97528624221730       -1.25808414925437       -6.39508715916670
H            7.28839367519205       -1.09861458085227       -4.66513467902563
H            3.19696456911210        0.99971708555786       -0.94768359938500
H            4.82145208106772        2.77726793336955        0.12937007728367
H            8.18222807325207        1.26436075142868        0.80886570081082
H            7.90020584360184        2.95114944860188       -1.73765614793280
H            8.65463735393580        1.36756463342716       -1.67032613208504
H            9.39103159260857        2.73170435859681       -0.82641949499903
H            6.80531896874471        3.95044269024379        0.36983536777242
H            8.27198236882893        3.68233304452466        1.29854085101383
H            6.74103067065262        3.00397121911832        1.85423677925786
H            8.81593827130084       -0.38451276176779        0.05093913416778
H           10.41641025051699       -2.07226650350920       -0.66613828104209
H            9.75160161256655       -3.82412351112810       -2.25351884656944
H            7.44704808661351       -3.88239769510827       -3.11856058675251
H            4.05182175475185        0.54237712048233       -4.44215925058254
H            3.51484998974551        2.47415754706043       -4.82696817648044
H            0.93855034994126        4.07793406410597       -5.07451345334989
H            1.47632982882951        2.73062748094821       -6.03497580388828
H            2.32686541494738        4.27074685105116       -6.13895463398510
H            3.00016420269887        4.87407209044698       -3.02245880326200
H            4.05676310447272        4.89293259377578       -4.42899103849931
H            4.39582595433468        3.83229705296750       -3.06214914301496
H            1.17684641871071        5.05694420161403       -3.50551003948394
H           -0.09988769940113        7.02108308294056       -2.90967042255720
H           -1.72001235368132        6.93117855455794       -1.06576267556053
H           -2.04361514554757        4.86875733580317        0.16836768994556
H           -2.11638466421082        3.96017115721957        1.83697899692562
H           -4.37327068796243        2.09637189371260        0.91192661830913
H           -3.75791730204907        3.44177920181365       -0.03030189240048
H           -4.58921230891261        3.74155748193010        1.49956187586770
H           -3.27301637185258        1.45437800927267        3.13218356643317
H           -3.42150311149377        3.09556880108681        3.73652586059626
H           -1.83975465187281        2.31400107007121        3.68691689864894
H           -1.80829709480882        0.17146753101165        1.95340261352658
H           -0.05213582565318       -0.63237246111952        0.18981764997615
