54
 energy: -8.386063260085 gnorm: 0.000874368818 xtb: 6.6.1 (8d0f1dd)
C            3.36737971565018       -1.75770205888238        3.69150135669243
C            4.05736413510418       -2.11046303138359        2.37202429928423
C            3.35175994362184       -1.43386498660857        1.19535085539412
C            5.55454878819837       -1.74986926235343        2.42658131883370
C            6.35096989415184       -2.23398141701556        1.21655972979149
C            7.84790897192117       -1.96080054248725        1.33575925635494
C            8.62988179263867       -2.46268341449951        0.12884357545928
N            8.41587288301688       -3.89597025310871       -0.11919369661657
C            7.51962511116065       -4.37411193643902       -1.19273676814260
C            7.25420417907661       -5.84742149086475       -0.82335499539901
C            8.06065149440442       -6.08654195469204        0.42618454866010
C            8.71380095397457       -4.91498833771337        0.79577083541992
C            9.52829669512395       -4.87078518814900        1.94545956245440
C            9.67306024508126       -5.98932085227716        2.70391785451289
C            9.01671653662316       -7.20309806642571        2.35935175959562
C            9.15626479397933       -8.33883865940380        3.11803521284761
C            8.55165950482235       -9.50136781995226        2.81606475384155
C            7.73150337627640       -9.57010036332157        1.66604195300735
C            7.55495326116095       -8.47715051295510        0.87627670224833
C            8.19464293701615       -7.25680570410020        1.19946900377295
C            8.73409927372467      -10.63464225165509        3.63350765400603
C            9.39999767231370      -10.69105516688635        4.64974449612473
C           19.50544758975999       -4.49457296953422        7.76088672187939
C           18.98248672150413       -3.42851486449200        7.06145475080385
O           18.77205255616193       -3.50464559037659        5.76469185779381
H            2.31323192828764       -2.03851720363222        3.67925715083425
H            3.41908708864893       -0.68461623469825        3.87708863899970
H            3.83786766638737       -2.26075318148075        4.53762639491936
H            3.98791552590763       -3.20366705979338        2.22980734487856
H            3.43976587405752       -0.34957431402871        1.26610494771950
H            2.28804621931030       -1.67541258079765        1.17816147458679
H            3.77270903062723       -1.73765050435653        0.23636805484547
H            5.99482306476023       -2.16896844146012        3.33892366799415
H            5.65926654304266       -0.66454311544985        2.53051930639598
H            5.96842536569263       -1.76713490806005        0.30191703804175
H            6.18794587371802       -3.30999777148339        1.08267626952950
H            8.22644984232494       -2.44145770906177        2.24520465905724
H            8.01835353964387       -0.88666697536374        1.48272088546586
H            9.70422046581214       -2.29381658897269        0.25122422163547
H            8.33284147246613       -1.91608544778026       -0.77082612726394
H            8.02444082300157       -4.26635737075396       -2.15779032187119
H            6.60660905125969       -3.77200805041570       -1.21981798077018
H            7.56831019892225       -6.53326162150282       -1.61821108180221
H            6.19204569730348       -6.03431744276532       -0.62897644654483
H           10.03840751827564       -3.95884432094737        2.19888113967567
H           10.29644706278237       -5.97491750781510        3.58116466887279
H            7.24995872347480      -10.50253070727485        1.42574184048794
H            6.93079097944036       -8.52786961474646        0.00136121996542
H           10.70944808142337       -6.98470283931101       -0.23856451629592
H           10.34012288548709      -12.42330794867836        4.34274953377127
H            8.03194941803218      -11.41000889039778        5.94305773127321
H            8.41428417336379       -9.18234519593725        5.67849445149062
H           11.12456118190211       -9.84901472352366        4.12125709551694
H           10.77847567663416      -10.63664503166588        6.00690614011747
