46
 energy: -8.292600364589 gnorm: 0.000504372318 xtb: 6.6.1 (8d0f1dd)
C            0.76717368851540        0.17520258593199        0.08800782203761
C            2.26752273661536        0.01371075240289       -0.16632374812070
C            2.51500908710838       -0.88441062327939       -1.37973254961440
C            2.94365322529911        1.38917879748765       -0.32420316680200
C            4.46717727354990        1.32564005296891       -0.41418678977027
C            5.11571993123610        2.70067769217824       -0.48215607672975
N            6.58290251794502        2.62650990384631       -0.63690924122496
C            7.35294674460582        1.86903205066873        0.30632315555786
C            6.95861284654651        1.89832043970620        1.64762007461899
C            7.65677901170459        1.22702749185642        2.62246449032433
C            8.77840022302675        0.50435803036540        2.28266385378200
C            9.18605430271934        0.45762916011368        0.96568605462033
C            8.49595841738362        1.11676079450942       -0.04099539704731
C            9.04748457254546        0.95998344907471       -1.43463834327678
C            8.12554380342746        1.34579012744456       -2.59005478377223
C            7.92947884935080        2.82052750427474       -2.66790847935608
C            8.48955996113351        3.59307031348278       -3.66991173180023
C            8.28382667033232        4.95921651298499       -3.70225845235054
C            7.51428184995525        5.56519099848338       -2.72787932900284
C            6.95789538511337        4.80975069337548       -1.72095813879876
C            7.16695686996461        3.43185138209819       -1.67068500856813
H            0.27956219601960       -0.78979610868783        0.23596415070113
H            0.28363633061310        0.65963305095041       -0.76097090958602
H            0.57247752251370        0.78749233880385        0.97003942163705
H            2.71583733820633       -0.47372687537397        0.71792543277113
H            2.13280419380253       -0.41753481906274       -2.28799813524449
H            2.01313623338255       -1.84733685353406       -1.27066656812063
H            3.57651174953639       -1.08276314896972       -1.53222665208465
H            2.65855042955614        2.03214409921994        0.51716671123344
H            2.54068451552770        1.88631346989359       -1.21356748204039
H            4.77111418003589        0.74583375689341       -1.29302354013924
H            4.86583692080142        0.77028357937717        0.44266171911254
H            4.87564846571585        3.29669460870121        0.40211663823796
H            4.71160055668819        3.25689569419669       -1.33347528134667
H            6.09981573791432        2.48330537370834        1.92464258121111
H            7.33321318525343        1.27232747169419        3.64988802102235
H            9.33558423558368       -0.02039289673348        3.04169228785606
H           10.06479196194922       -0.10825357490724        0.70473078132641
H            9.35859583822505       -0.08585006156672       -1.55660728645561
H            9.97157618221263        1.54576350336077       -1.50717598817563
H            7.15254032277937        0.85630698795733       -2.46737849160964
H            8.52487217032260        0.98266459950994       -3.54554364319801
H            9.08868207225600        3.11828296061773       -4.42816758118780
H            8.72291178151899        5.55179328868615       -4.48835686464282
H            7.35223390268806        6.63058157231473       -2.75466264052421
H            6.36529400882131        5.27375987297361       -0.95185089545553
