46
 energy: -9.051972552761 gnorm: 0.000646815814 xtb: 6.6.1 (8d0f1dd)
C            1.56440993658783       -0.69163609658392        0.71946642412767
C            2.98638098653320       -0.16476190554236        0.53192936291812
C            3.84121794047208       -1.13535178783452       -0.27955158498132
C            2.98477133522971        1.21997547745023       -0.11828230329726
N            4.33543342469754        1.77272539635741       -0.20070249354929
C            5.11395287220813        1.96234670572259        0.94393897049496
O            4.76292842452636        1.81108447713331        2.09917126412855
C            6.44896877292280        2.33610065694386        0.46689566072498
C            7.49534728425651        2.60549201958832        1.30809422934258
C            8.81429384354134        3.06115124230511        0.95111139579483
C            9.87189200507931        2.89335043745871        1.85656826969779
C           11.13898983927389        3.32085861750627        1.54842059253367
C           11.39232704274075        3.94017631656934        0.33799037247675
N           12.74106330399992        4.38890729870978        0.01045539581504
O           13.64117365139341        4.21115887472533        0.84321683211662
O           12.93296494134642        4.92865197078376       -1.08833045341872
C           10.35752425731788        4.14033367098874       -0.55742724167064
C            9.08773317667452        3.71427338500612       -0.25864368983551
C            6.39475415283346        2.26504012287633       -0.95385900440326
C            5.12245274985335        1.93454607771964       -1.34582682558807
C            4.67210503006752        1.72135366918469       -2.72706439324417
C            5.41356868660157        0.93085822596800       -3.60308891145527
C            4.98214365187061        0.71901198751342       -4.89288962462147
C            3.80792067907345        1.29498221392014       -5.33348109613385
C            3.06671984108914        2.08835457699021       -4.48143124696936
C            3.49371324630298        2.30205605155773       -3.19045279337325
H            1.56175535846084       -1.66934288439226        1.20231813493985
H            1.06393585430232       -0.79799695590080       -0.24285024140082
H            0.96523146282753       -0.01455950530083        1.32936979718271
H            3.45202956843433       -0.04848044785794        1.52770516592198
H            3.43578489653563       -1.25741699337240       -1.28390942084864
H            3.87922854317983       -2.12129135759554        0.18478456947908
H            4.86389287036130       -0.77061514867651       -0.38115259272367
H            2.37017501678565        1.91747888071874        0.45681555818567
H            2.55364280410342        1.16018577781068       -1.11877901578108
H            7.30391572771757        2.45208850122117        2.35660371025799
H            9.68106973359494        2.41113351692937        2.79983588545696
H           11.95453875341992        3.18485591150478        2.23850808949031
H           10.57019330544587        4.64494768810707       -1.48478831141093
H            8.28278883097480        3.93747975548282       -0.93421122734791
H            7.22253882612950        2.38348403858355       -1.62773003091940
H            6.32516771884924        0.47797474104858       -3.25356101965199
H            5.56153913871023        0.10162908513232       -5.55945445368446
H            3.47166010947485        1.12769172225799       -6.34348407027163
H            2.15397035434298        2.54390237368427       -4.82845531653625
H            2.92970004986850        2.93698161760010       -2.52934231796594
