44
 energy: -9.809216582482 gnorm: 0.000693367272 xtb: 6.6.1 (8d0f1dd)
C            0.64440877796565        0.00502901200889       -0.00242755282371
C           -0.57711369497865        0.02190957050535       -0.01733149998859
C           -1.98604138454324        0.05337147440310       -0.04459767317409
C           -2.73112461573943       -1.10604624504998        0.15441569841679
C           -4.10606807222028       -1.07392948668505        0.12239026559763
C           -4.78124399992171        0.11876263867576       -0.11063726304310
N           -6.21665846647793        0.15183434539158       -0.15807872943880
C           -7.09703049518504       -0.39523295751676        0.79947639291766
C           -6.84481430765905       -1.06860510579249        1.99417141392719
C           -7.90924138877765       -1.49537849743777        2.74996496583459
C           -9.22468940738537       -1.26132872347377        2.33954350001574
C           -9.49122965412391       -0.59237508694869        1.16915003755436
C           -8.41956763913029       -0.15128086405386        0.39157517406208
C           -8.35747116710471        0.57179326693933       -0.85665194266915
C           -9.34778760259888        1.06927277570378       -1.70496767161049
C           -8.96581379360450        1.71898720057061       -2.85409701070090
C           -7.61461966761581        1.87881233324534       -3.17403878582373
C           -6.62938255135088        1.39710389694107       -2.34734035179909
C           -6.99904677906472        0.74363833892647       -1.17228851146336
C           -4.04065986834203        1.27895967934638       -0.30605911800640
C           -2.66598521150269        1.24665174140585       -0.27334691252041
C            2.05554334290374       -0.01315128978395        0.01349105126246
C            2.75123750302978       -1.21801202184297        0.02292107693607
C            4.13013836300749       -1.23547928425818        0.03485999007931
C            4.83683281197217       -0.05006579512997        0.03762320352874
C            4.16188674891267        1.15368281452825        0.02785170498928
C            2.78301189346637        1.17284967775362        0.01519741248810
H           -2.21359502053978       -2.03338387383289        0.33125540896417
H           -4.67663176239626       -1.97552820742781        0.26038008373890
H           -5.83069317698694       -1.23590324783443        2.30977385918485
H           -7.72844620396670       -2.01789616012733        3.67499981917399
H          -10.04088891725058       -1.60847149225526        2.95155179199304
H          -10.50045980501583       -0.40451276761286        0.84762451576861
H          -10.38540524435170        0.93795247945522       -1.45332467010112
H           -9.71801345735589        2.10845934746242       -3.52023894149374
H           -7.34263109705694        2.38657556004114       -4.08488784663782
H           -5.58848680999166        1.50657816524397       -2.59354214016824
H           -4.56141793572948        2.20581599454712       -0.47119045927564
H           -2.09809891880333        2.14833078745930       -0.42656937675402
H            2.19597896250234       -2.14056328044513        0.01966778488338
H            4.65628103782256       -2.17609706111994        0.04159673655646
H            5.91454028766459       -0.06439717567777        0.04716911230869
H            4.71293742609669        2.07996468932578        0.02995670869721
H            2.25262096147350        2.10989283442478        0.00684874861352
