46
 energy: -6.951408785816 gnorm: 0.000959044552 xtb: 6.6.1 (8d0f1dd)
C            1.49612479260612       -0.27360192833620       -1.79417287617147
C            2.32074508310754        0.01286534861189       -0.54424153538090
C            1.44960583517450        0.41419464224993        0.63851728686770
N            3.15736357532436       -1.14672211559775       -0.19368599034664
C            4.32655568066649       -1.16010612578315        0.51900096570049
C            4.98021002199105       -0.00508455739626        0.96482262854711
C            6.14673774324910       -0.08322199729367        1.68370883257927
F            6.68426020316372        1.03968723365088        2.20358317854293
C            6.72215063804092       -1.33816941965259        1.95359643732455
C            7.96868376371721       -1.47636437656058        2.72634843208078
O            8.11491314349932       -2.44392691779770        3.44821793428232
C            9.04352332927775       -0.47280244790497        2.64608753855426
C            9.86822304170642       -0.28762284445289        3.74861273982143
C           10.89635925517481        0.62160160623776        3.73017008044701
F           11.69251801226274        0.75586900958211        4.80323243175529
C           11.13672165485210        1.38956874697171        2.57083374772442
N           12.14227088844170        2.32143056573889        2.53431404650694
C           13.04198217659007        2.68504341542734        3.63814067039639
C           14.16509273117732        1.66434706944879        3.77249072232202
C           13.56701222046518        4.10654621599522        3.47786346253980
C           10.32642062272127        1.16913106489331        1.44909248360201
C            9.30854948316710        0.24958557769709        1.46946063465742
F            8.62291139811418       -0.01139741793098        0.33726740490467
C            6.05929351663612       -2.48765499503665        1.54063899504217
C            4.88807507292152       -2.41425716252462        0.83042834969283
F            4.25276327333352       -3.52711827630383        0.42333356222895
H            0.91968779842964        0.59824340870250       -2.10528688685165
H            0.79351915122824       -1.08688233860974       -1.61402668395347
H            2.13599730946267       -0.57071845736028       -2.62551831909281
H            3.01769069378903        0.83625266555990       -0.77460972251114
H            0.76452917323323       -0.39293830327488        0.89634159593518
H            0.85393424854886        1.30065575790357        0.41901606406672
H            2.05299034286459        0.62061514241929        1.52257242353288
H            2.72853508584809       -2.03804385424292       -0.43171644878480
H            4.57182873388688        0.96681497045036        0.76226813845265
H            9.70387748664841       -0.88187645928557        4.63213007604115
H           12.34824601176383        2.82453103674444        1.67339435256902
H           12.41879547300381        2.64655214022637        4.55037119325703
H           14.77077761762706        1.63936091836743        2.86737706110335
H           13.75868123233861        0.66360693945331        3.92712206365498
H           14.82068413280206        1.89452682750288        4.61289822021298
H           14.18647838989078        4.19040159389656        2.58573954366030
H           14.17411372428105        4.40890786921789        4.33158068545616
H           12.74766124034268        4.81897171013941        3.37880472512287
H           10.50157472104793        1.72101211132452        0.54359022059284
H            6.46922027558470       -3.45210359307143        1.79138953331299
