49
 energy: -7.704740315716 gnorm: 0.000418306828 xtb: 6.6.1 (8d0f1dd)
C            1.15810920198098        0.39418156961803        0.10111614867715
C            2.49709438941492       -0.28170713128676        0.36867858329779
C            2.34903341214031       -1.53580080234435        1.22011518151215
N            3.20056418521411       -0.58715479549386       -0.88581015997851
C            4.56562304142120       -0.69015420834732       -1.05687528755751
C            5.10407191081048       -0.88705183254400       -2.32641414763956
C            6.47784248670776       -0.96164312233115       -2.54452469966846
C            7.32827481352760       -0.86976165623105       -1.42130003806093
C            6.79601293090202       -0.68340166712958       -0.15170131014602
C            5.44428014820305       -0.59069616305490        0.04657878134197
F            4.95578896969777       -0.43806275288214        1.29034708352691
C            8.76615180305422       -0.97450951544734       -1.57666774922667
O            9.51181657252256       -0.88138833508611       -0.61411153797518
C            9.29023305232328       -1.20704272958184       -2.90857806359727
C           10.66154936227670       -1.34664739062281       -3.08150129805336
C           11.20273384059825       -1.57984584384959       -4.31752799954638
F           12.53179009835951       -1.73655137755513       -4.45125318403778
C           10.35546677087731       -1.68710408599835       -5.44455077046765
N           10.87691024456147       -1.90892906033240       -6.70241554228122
C           12.30145555314353       -1.97524893637573       -7.06011351219627
C           12.86810319278341       -3.35524287768287       -6.75359619227876
C           12.52654192269903       -1.56903488570150       -8.51115820784559
C            8.98036033972135       -1.55690588409524       -5.26399833571886
C            8.41887300616938       -1.29706641604062       -4.01590128164002
N            7.03489117373684       -1.10898101272992       -3.83021354593232
C            6.16667522119910       -0.98025385687955       -5.00249560892608
H            0.66232150997976        0.68316181260520        1.02837706427979
H            0.48865967583884       -0.27692661591345       -0.43577074790553
H            1.28415384087735        1.29036892670211       -0.50692936042929
H            3.14582807695206        0.43446275669480        0.90468762095648
H            1.75042850867666       -2.28302676164891        0.70060154260423
H            1.86709086119172       -1.32003511416331        2.17423256539388
H            3.32450142046620       -1.97767700826138        1.42775279632129
H            2.56922176472085       -0.70992885611263       -1.67515426363234
H            4.42394942021725       -0.99866918534195       -3.14828102034568
H            7.46213535059342       -0.61404967355856        0.69114765956676
H           11.30835449207949       -1.27182110059393       -2.22419661688275
H           10.26049933107115       -2.04534920167411       -7.50126374278503
H           12.80384819884908       -1.23507244239820       -6.41144178791530
H           12.36180851442869       -4.11727512424425       -7.34484295346589
H           12.72726348806219       -3.60430246945383       -5.70095969256136
H           13.93487172325905       -3.41025083693330       -6.97299309293742
H           12.04248709468021       -2.27270296839543       -9.18740475522968
H           13.58766476845240       -1.54652706269029       -8.76152307946483
H           12.11269525045909       -0.58042004279239       -8.71148609095144
H            8.34781596978839       -1.68068874962592       -6.12132402597325
H            6.71162181641399       -0.55758281505453       -5.84214577480092
H            5.34324166313195       -0.30117949941971       -4.79829287842253
H            5.77052961576545       -1.95367319771911       -5.28275667099780
