45
 energy: -7.005465112492 gnorm: 0.000393092803 xtb: 6.6.1 (8d0f1dd)
C            1.05642760392484       -0.24611885647394       -0.29613046871958
C            2.37493598275832        0.38363256102706        0.13579657763178
C            2.18132772921919        1.76564301133999        0.74619539498810
N            3.10656017088427       -0.49401777359747        1.06112284687798
C            4.47011260797511       -0.53342842570247        1.24856167334652
C            5.03962171076442       -1.48907075899770        2.08481232050567
C            6.41549407184970       -1.57410397158817        2.27260543007505
O            6.92256015931335       -2.55943248652597        3.09967875362223
C            8.29344770062068       -2.65447367565899        3.25339830401827
C            8.81703050518694       -3.66274920041107        4.05640929060682
C           10.18807540911382       -3.82256825972413        4.23416393147007
N           10.67647064530306       -4.85036251355952        5.00940294762500
C           12.09079847972999       -5.18553071865918        5.22957461466952
C           12.69756557736603       -4.27907000498128        6.29256026065631
C           12.26332691454472       -6.66228233199331        5.56254041623924
C           11.06559327194863       -2.91312266808945        3.59418286581676
F           12.39185375157628       -3.01056500927300        3.78430005468019
C           10.55938351406477       -1.91388572722239        2.80428784591023
C            9.19080619021631       -1.76824555816362        2.61766797065057
C            8.67852737639654       -0.71620020835180        1.76748249014713
O            9.42338438880141        0.07555625749984        1.21255699903797
C            7.24346808914915       -0.64886554806390        1.59945102113074
C            6.67914314887879        0.31480464154652        0.77363575697704
C            5.32275776421305        0.38627873107142        0.58995258782159
F            4.80153774505505        1.34282642429089       -0.19613556865741
H            0.54050155731623        0.36891486085128       -1.03419044760006
H            0.38974179603567       -0.36701582447687        0.55701241855494
H            1.21567681352928       -1.23255275251829       -0.73262169563610
H            3.02282267375239        0.47894976319912       -0.75457687600524
H            1.58177435171117        1.70351420975929        1.65358020325808
H            1.68045140368008        2.44454227296865        0.05517921238176
H            3.14268017364703        2.20655275555807        1.01365363114866
H            2.49784236968925       -1.13192829642659        1.57021231983194
H            4.41190688063310       -2.19640281199326        2.59390761652624
H            8.13351636948758       -4.33883300288307        4.53519973880845
H           10.03893527068660       -5.46670723110707        5.50971865839864
H           12.59446475754209       -4.98613072466984        4.26619598223321
H           12.19140434523317       -4.41586579734064        7.24744488184775
H           12.59356922346190       -3.23062937210181        6.00954182707728
H           13.75852796559055       -4.48429327241588        6.43909804006388
H           11.77622626927370       -6.90366985859308        6.50665366115060
H           13.31575571059213       -6.93266789837608        5.65492917390629
H           11.82037288127898       -7.29352363480367        4.79165391108867
H           11.23217887286338       -1.22860005766703        2.31684011004572
H            7.32208980514156        1.01475874330043        0.26711331579056
