39
 energy: -7.336049414317 gnorm: 0.000458450202 xtb: 6.6.1 (8d0f1dd)
C            1.03185763460670       -0.04348871315540       -0.78476315456737
C            2.48467927807732        0.09333883168143       -0.34604798359716
C            2.67037775772411       -0.34440076090483        1.10147519072559
O            3.32688327540488       -0.67449818359842       -1.22849614860297
C            4.68892331285940       -0.36144518944025       -1.22095660750187
C            5.52248220906552       -1.16126466213704       -2.00860644503612
C            6.87505746006054       -0.93771188035469       -2.07196634744649
C            7.45856032705123        0.09885036465107       -1.35055756939377
C            8.84275824622394        0.33435402042459       -1.40854786558530
C           10.04403638691091        0.55724087129055       -1.44493203007514
C           11.37958012672595        0.81900573774578       -1.47030438397041
C           12.40981430782420        0.00329576328662       -1.56628783679515
C           13.72836950994692        0.43855336202248       -1.56624513872327
C           14.14641759979880        1.69829836425448       -1.47371799756556
C           15.41471457945376        2.12776157168429       -1.45989985334527
C           15.77415189179013        3.47070725923051       -1.35959027132041
C           14.88616938292747        4.48044136958810       -1.26725837470275
O           15.05190866499831        5.78232644317077       -1.16826737659617
O           14.16058106814631        6.83410837078595       -1.06708861434350
C           12.85047932204346        6.62179787182341       -1.05656052019472
C           11.90043525065608        7.38143640866929       -0.97522910299165
C            6.63517584115049        0.90216154560117       -0.56734292427590
C            5.28129267980210        0.68126534952878       -0.50198864680504
H            0.36322591361332        0.55287215039693       -0.16316730844715
H            0.71743529329292       -1.08411962187157       -0.71777103966164
H            0.90851707988025        0.26792245179565       -1.82199882772586
H            2.78126317101997        1.14716583168653       -0.46906743277149
H            2.37985439786158       -1.38783121411798        1.21452443611186
H            2.06030428285907        0.24958491192051        1.78220628005628
H            3.71008381897627       -0.26477636607752        1.41614330231465
H            5.07303409788527       -1.96248258761520       -2.56780166212794
H            7.50167150236239       -1.56359485025044       -2.68394747243357
H           12.22794466168140       -1.05473968038813       -1.64349495092680
H           15.25430168545981       -5.86140299405046       -1.41276257938586
H           16.19620687335335        1.38878655616951       -1.52898094233493
H           16.82192803987530        3.72219022747597       -1.35360091411216
H           11.20176577935412        8.81472275666634       -0.87083040657060
H            7.07988799450601        1.70865474422463       -0.00950090408732
H            4.67761929452582        1.32463356824323        0.11052042491715
