96
 energy: -17.315286354930 gnorm: 0.000608973656 xtb: 6.6.1 (8d0f1dd)
C            1.18854515541038       -0.30469474928303        0.23793001981228
C            2.58580922569665        0.08960840090972       -0.20630088898281
C            2.71475899815472        0.01585023881017       -1.71967364698905
Si           3.10695478033931        1.81709788752812        0.42488033669685
C            2.54075682882093        3.03457992283986       -0.74800740410416
C            2.14448091228210        3.82034698516389       -1.58471101946040
C            1.69910804823802        4.72872050724602       -2.56216766762699
C            1.11601238807039        4.29715833958415       -3.75543114817089
C            0.84701996265363        2.92059644493259       -4.21585115142356
O            1.08691879563583        1.88352152938727       -3.63789249253761
C            0.21970648335201        3.06197827292138       -5.54152243054037
C           -0.24507076540269        2.09782287758635       -6.41542710185298
C           -0.81344205233208        2.50301672962412       -7.60823274585387
C           -0.91812020089498        3.85046846547146       -7.92226599492531
C           -0.45382452060839        4.81648512265616       -7.05189490086090
C            0.12296958195124        4.42027056618793       -5.85448225527772
C            0.68600439794650        5.19527428701637       -4.74718977359514
C            0.82676945115997        6.58184909359782       -4.59728899372993
C            0.44091029653695        7.49539677663813       -5.59544161807762
C            0.15395235003964        8.32013014744260       -6.43957574799746
Si          -0.14967339306070        9.69964300616610       -7.53003245197831
C           -2.03504515078933        9.99755348400842       -7.50810810276851
C           -2.47949158093662       11.30243420738468       -8.14273602544713
C           -2.76059464878466        8.79639618752629       -8.08812438759467
C            0.82103884437978       11.14877712783403       -6.76140245469050
C            0.99631582254579       12.33329461709381       -7.69388762557655
C            0.21976580789058       11.53741851328536       -5.42262453380724
C            0.55722031805352        9.30264253193330       -9.25885850101032
C            0.49117302956455        7.81174875151390       -9.54139638389700
C           -0.06915082457797       10.12382990946636      -10.37072270301522
C            1.39634755864740        7.01366657449796       -3.39745241354933
C            1.66124001923683        8.39055813262878       -2.93499162215245
O            1.42287525184502        9.42815036332025       -3.51300153384394
C            2.27688582665724        8.24928075798750       -1.60370376773584
C            2.72362103262653        9.21413044025496       -0.72126327898437
C            3.26696975035412        8.80991191203172        0.48351122758312
C            3.36193050758480        7.46286117852109        0.80234415770640
C            2.91588268165626        6.49602153388221       -0.07654858206658
C            2.36998066354214        6.89114364171885       -1.28890980540828
C            1.82159154386909        6.11591967065608       -2.40364662296664
C            2.30569112124894        2.15302090255896        2.12754232396334
C            3.12823123062098        3.07443505082392        3.01076959770251
C            0.89410714440382        2.68611582210928        1.94548481855389
C            5.00991421917666        1.91049969483083        0.57457668357689
C            5.73013555953392        1.06169458355344       -0.45764104695887
C            5.47404579087671        3.35677220052770        0.51352284663927
H            0.94055135325960       -1.31632406818961       -0.08810656501983
H            0.44669579320809        0.36523293673373       -0.19782504006191
H            1.07859047715004       -0.27144823436165        1.32237551297900
H            3.32041024583834       -0.57590562984127        0.26839928148586
H            2.00436139853875        0.69184626535596       -2.19710157379491
H            2.50864215015383       -0.98937380202391       -2.09082624524806
H            3.70844251290606        0.30124686745778       -2.06316996319265
H           -0.15997595045746        1.05777430152461       -6.15349640659712
H           -1.18219511191117        1.76382375623132       -8.30032242812492
H           -1.36793543904973        4.14761653161907       -8.85544131328148
H           -0.53732167938725        5.86239929384000       -7.28347448836102
H           -2.22434219896303       10.04149497866398       -6.42512388813376
H           -2.23982958802277       11.32468499303129       -9.20501844676186
H           -2.00234213232728       12.16406674492226       -7.67609087285022
H           -3.55875658842490       11.43728724524928       -8.05227118296052
H           -2.59634319417649        8.72424606704763       -9.16320126033208
H           -3.83808028565944        8.86428185785078       -7.92721858352203
H           -2.41254465397825        7.86473361626593       -7.63839698282090
H            1.80131741306117       10.67908914630547       -6.58936732888461
H            0.03685540986204       12.78436893069084       -7.94316639531297
H            1.47768937774359       12.04287304208343       -8.62865802866304
H            1.61043650515310       13.10981296696966       -7.23456880207197
H           -0.77898932091295       11.95565578802846       -5.54948216831761
H            0.82968784930525       12.28596223472572       -4.91426937699135
H            0.13877994739173       10.67382622715327       -4.75933082932088
H            1.60922951574217        9.59955907385288       -9.13543551107723
H           -0.54372609448693        7.47417808862321       -9.60249282945212
H            0.97930179025081        7.23336823916534       -8.75514372297640
H            0.97463131709755        7.56251851720653      -10.48763801080344
H           -1.10275963666896        9.82283005970129      -10.54004485143607
H            0.46361508080620        9.98753797217968      -11.31356219492169
H           -0.06713229807264       11.18939630912699      -10.13870992804344
H            2.64089584223468       10.25410009927614       -0.98424257332931
H            3.61978714285472        9.54991703427299        1.18301287797246
H            3.78819158952493        7.16687538928144        1.74688648424951
H            2.98363479349323        5.45093811943639        0.16390045926882
H            2.27543269406067        1.15194785799334        2.58017025165430
H            3.18962972559899        4.07151099798442        2.57388260868607
H            4.14447796946977        2.70515723821974        3.15279223897374
H            2.67652107331679        3.18292709898708        3.99844106313100
H            0.91586408060933        3.67229002937773        1.47952192135442
H            0.37780655835411        2.78615290115452        2.90192690862932
H            0.29235677179370        2.04083798109831        1.30554319139730
H            5.19559443782073        1.49663941426133        1.57564025395624
H            5.53501537157753        1.43474366988708       -1.46350799111699
H            5.41772192330999        0.01751113837723       -0.41798913526270
H            6.81096210836273        1.08785570916813       -0.30769163018669
H            5.26195132428391        3.78436788864216       -0.46733261410350
H            6.54935263623961        3.43871313984861        0.68135342603158
H            4.97317174883302        3.98073533298070        1.25328949662984
