100
 energy: -17.890949689000 gnorm: 0.000761376640 xtb: 6.6.1 (8d0f1dd)
C            1.28699140437637       -0.08114151852431       -0.34391446274917
C            2.65534191144565       -0.01797521408092        0.31075826606912
C            2.74505274459751        1.15237297187550        1.27638327427486
Si           3.15682822607653       -1.64045405528187        1.18870647836813
C            2.61014897519184       -1.60569421730898        2.88673497677200
C            2.23203780160536       -1.61086710954131        4.04346269946661
C            1.78593055076410       -1.63676089579101        5.37323363278591
C            1.69036289738156       -0.43551188134753        6.11395710196926
C            2.04446637586500        0.79537985047800        5.54741735414178
C            1.95115373106485        1.98631232114852        6.25802570140203
C            2.30655070256725        3.23683985851400        5.68302499707036
C            2.20328703505145        4.38441106425557        6.40238565424460
C            1.74239733207520        4.35853460458888        7.73349611310948
C            1.39238556541454        3.18561591927891        8.32259478170154
C            1.48325954785029        1.95983727016685        7.60843537584403
C            1.13184675775883        0.74349332112309        8.18252247476124
C            1.22052800000659       -0.46254552622101        7.47547271016085
C            0.85672596430496       -1.69145575372301        8.07425765489058
C            0.39395598577513       -1.71805155116717        9.39830798706674
C           -0.01892091591124       -1.74336896549806       10.54288531950662
Si          -0.67177755590211       -1.77095052249086       12.20402134045372
C           -2.33399146508275       -0.83446077349715       12.14679806375028
C           -3.17840055056913       -0.96355600537105       13.40126063738251
C           -2.10872337400697        0.61392216551925       11.75038301100190
C           -0.90589820902057       -3.61376299825898       12.62960034430115
C           -1.05113032248502       -3.88718351371672       14.11556722608492
C           -2.04095161839101       -4.20427362382201       11.81222794124280
C            0.61302902054233       -0.98791520160228       13.37926219776849
C            1.40403823496391        0.09780231846062       12.66940475918656
C            0.01884767174763       -0.49829459093306       14.68700022807085
C            0.95576245623507       -2.89349444700330        7.33495120224473
C            0.60209966432265       -4.12483920577830        7.90144019104665
C            0.69142060138937       -5.31501959237124        7.18874376191672
C            0.33335374568802       -6.56588161626150        7.76134421561790
C            0.43433814379288       -7.71268225305521        7.04034139837145
C            0.89547136059997       -7.68578700543999        5.70931752622027
C            1.24744817092935       -6.51257444764390        5.12202513977448
C            1.15898870633045       -5.28784416057968        5.83820453420428
C            1.51366926721199       -4.07173405323372        5.26595440926834
C            1.42526735908186       -2.86590347209447        5.97331342581964
C            2.35163411234405       -3.12892702253274        0.30043503828138
C            3.15078426356478       -4.41307854439419        0.43301669183369
C            0.92414107499204       -3.32238334879613        0.78597071459022
C            5.05844116762520       -1.82162779815052        1.14860339719869
C            5.78527242857449       -0.48932011437758        1.20018239305183
C            5.52420828274305       -2.74023666155509        2.26670009605618
H            1.06645246426231        0.83698292723527       -0.89203202538655
H            0.50718332336195       -0.20264739371836        0.40880895478635
H            1.20798005497315       -0.91084418954249       -1.04784249188174
H            3.42371734999181        0.07748670802607       -0.46949247949892
H            1.98110592330821        1.06542695176667        2.05081470197910
H            2.58819949440034        2.10548991761050        0.76705588128422
H            3.71175339733823        1.19667857871333        1.77921737259418
H            2.40054369187247        0.82131364372948        4.53413541442628
H            2.65862644197028        3.25963950654973        4.66587161332424
H            2.47535235185289        5.32626996418955        5.95430005453307
H            1.66852076470290        5.28106323614520        8.28609182687157
H            1.04054570156212        3.16924349611825        9.33993554410798
H            0.78133772086255        0.73020933280194        9.19821517804911
H           -2.83659843521712       -1.35816450874583       11.31967541543364
H           -2.68580707747363       -0.50108869646306       14.25589261752404
H           -3.37272966558755       -2.00582653934114       13.65508790408424
H           -4.14451317441104       -0.46979447843236       13.27954381263393
H           -1.61908548914096        1.16484645198506       12.55379096159186
H           -3.05123388313202        1.12133796140469       11.53494828481660
H           -1.47597935992027        0.69165621781640       10.86397554284369
H            0.04880319911301       -4.03398560561482       12.27839382283916
H           -1.94899592727804       -3.41717190476142       14.51587951833577
H           -0.19893470470729       -3.50663343982409       14.68093910362804
H           -1.12783506177348       -4.95771625414362       14.31554051846176
H           -3.00206296307806       -3.80203224243367       12.13433228931964
H           -2.08823077304466       -5.28998901635953       11.91799249735920
H           -1.92895885649700       -3.97481986926415       10.75054960154569
H            1.27400786091969       -1.84491657701338       13.57703287568787
H            0.76097912918221        0.93925021800103       12.40950011114649
H            1.85026810399108       -0.27059298495006       11.74369104363772
H            2.20886371661296        0.48233657995292       13.29897609114464
H           -0.60212144098176        0.38282116980756       14.52438103840819
H            0.79855498606625       -0.21559238739705       15.39711737755049
H           -0.60259145973612       -1.25944021200336       15.16066913630464
H            0.25217939566115       -4.15225852060210        8.91710190773553
H           -0.01970391303646       -6.58962339215443        8.77812565559648
H            0.16006251133315       -8.65469695837445        7.48675553530774
H            0.96780153566062       -8.60760317231095        5.15531667583425
H            1.59879877063077       -6.49503524928221        4.10451748635974
H            1.86811961934311       -4.05860582929467        4.25166758944929
H            2.35208244862185       -2.81087826519091       -0.75184164240129
H            3.19251784119809       -4.73342499023808        1.47492750012320
H            4.17441088748432       -4.29672255863789        0.07407741435693
H            2.69348512617059       -5.22472860394764       -0.13630391943108
H            0.91495942930672       -3.62125981741258        1.83528825088091
H            0.41093723526430       -4.10183897055375        0.21928941197257
H            0.33616782674527       -2.40789441705716        0.70624020007390
H            5.23671599429196       -2.29435426899360        0.17235632748168
H            5.59180482650847        0.01633290194217        2.14712800685544
H            5.47698163922644        0.17735217178322        0.39362036530133
H            6.86592871938310       -0.62403970400765        1.12054623684802
H            5.33510875741970       -2.28289005743875        3.23930744875719
H            6.59555339877715       -2.94043456737412        2.20049728378696
H            5.00458731502340       -3.69848629678757        2.25501517992057
