110
 energy: -20.391973233281 gnorm: 0.000388961241 xtb: 6.6.1 (8d0f1dd)
C           -0.43119135992092       -0.93351266889371       -1.54625588077080
C            1.04631029920574       -1.19163241126107       -1.31173245096462
C            1.41409215244622       -2.61667214300552       -1.69404584642346
Si           2.16655472462297        0.05786131857434       -2.22721955670496
C            2.41951285953366       -0.56759616730313       -3.87988148874527
C            2.39985407964511       -1.23298179779657       -4.89781023963331
C            2.27244752582994       -2.07207975180738       -6.01396365858500
C            3.15379678212967       -1.96101109004276       -7.12061471685456
C            4.16573715326614       -0.99855042705036       -7.15441094919865
C            5.02508231864941       -0.87760157966527       -8.24271871244931
C            6.05401967559084        0.10129404853299       -8.28667705303779
C            6.87379609293700        0.19768365841721       -9.36556143076906
C            6.72072144815918       -0.67131869062688      -10.46284337555554
C            5.75102761744480       -1.62257903762596      -10.46195533666989
C            4.87122999868097       -1.75995158675424       -9.35490605955675
C            3.86688933456371       -2.72311032803959       -9.32515637079941
C            3.00195656572027       -2.84851798048065       -8.23607858472516
C            1.97898959614604       -3.83155840182258       -8.21229483483754
C            1.79652998444205       -4.71912836058737       -9.28242373614976
C            1.55055858583831       -5.52923662607437      -10.15544325670384
Si           0.84905617244421       -6.71291500400008      -11.29243732558923
C            1.35275057758598       -6.16940450033709      -13.05048072981034
C            1.02918110157936       -7.17516306647174      -14.13965439980883
C            0.79080850057409       -4.79149590864289      -13.35091856144961
C            1.59047363046379       -8.40266672751243      -10.81764533277844
C            0.79474108848495       -9.58755987447591      -11.33405067481623
C            3.05520539113358       -8.46613432439662      -11.21031192356818
C           -1.03735644005430       -6.74399864554705      -11.00121587112366
C           -1.54810006680104       -5.39675200186531      -10.51879749570831
C           -1.83301192460057       -7.26929122331434      -12.18094120213134
C            1.10874258454488       -3.93204168500621       -7.11679083284741
N            0.15490363881545       -4.89001559606073       -7.13929039765357
C           -0.64979989901233       -4.92073668373813       -6.09412494840735
C           -0.54063559648634       -4.00069946081485       -5.01126356151810
C           -1.48909209429941       -4.07654832817566       -3.94130175087246
C           -2.48230977653548       -4.98773013715353       -3.92284292688294
C           -2.62686788205014       -5.94619483843764       -4.97670202377955
C           -3.63733095921835       -6.89109926535851       -4.96772103743087
C           -3.75830919747400       -7.84037614040641       -5.99321246484765
C           -4.78874551987868       -8.81367097310996       -5.99972091308201
C           -4.87183645216503       -9.72964942718870       -7.00192207368382
C           -3.93376935581140       -9.73038897263626       -8.04701272378523
C           -2.93116027525708       -8.81173695096922       -8.07633446011060
C           -2.81544966774274       -7.83481385184249       -7.05675076353294
C           -1.80206132739555       -6.86577020446077       -7.06162757497665
C           -1.69649811265665       -5.92542508610138       -6.05758636481432
N            0.40379803599009       -3.07442162821664       -4.95402487383619
C            1.24740670957612       -3.03241835460863       -6.00833117606117
C            1.29548674471625        1.75769181205802       -2.29444445360634
C            2.26085409122515        2.92923978218502       -2.32186325907224
C            0.33697178781124        1.81012388615934       -3.47261872517452
C            3.83768929798476        0.22021183390441       -1.31512969975527
C            4.26869330409943       -1.05717031546744       -0.61725479140613
C            4.91043229969191        0.71005334888402       -2.27328777817805
H           -1.05061210110243       -1.63275082235167       -0.98131431193537
H           -0.67729372843392       -1.06104573099356       -2.60100406173008
H           -0.72279413011622        0.07553915335291       -1.25226455222035
H            1.28515192175998       -1.01018056078851       -0.25437049392123
H            1.20695260490954       -2.79322279844768       -2.75015813605579
H            0.83828462880907       -3.34618624109855       -1.12155405166447
H            2.47144592100032       -2.82643794466785       -1.53477294466175
H            4.28148238583931       -0.33058174439632       -6.32051463190746
H            6.17347877400935        0.76747851026442       -7.44958602513323
H            7.65015138865679        0.94508471636422       -9.38648297987204
H            7.38116927510693       -0.57721721620252      -11.30945566678946
H            5.63583626580416       -2.28525421209890      -11.30244735786517
H            3.75229212562928       -3.38475207901289      -10.16426848564540
H            2.44514827777057       -6.09620896878733      -12.94049912303666
H           -0.04719951632857       -7.30016426352341      -14.25152783035229
H            1.45595250817619       -8.15545767035182      -13.92683410460203
H            1.41823836296296       -6.84957492660927      -15.10628000440003
H           -0.29278574460160       -4.83072703056548      -13.46456399491810
H            1.20185131488748       -4.38451936376166      -14.27688458778826
H            1.01148308290780       -4.08666573143861      -12.54679428881293
H            1.51058125467395       -8.36685585261785       -9.72049659934885
H            0.79403759075256       -9.61499345911643      -12.42332917818260
H           -0.24448976875463       -9.55137832579396      -11.00371970551266
H            1.21854057591733      -10.53112571681685      -10.98513079104948
H            3.16610015813111       -8.49284951842599      -12.29481842660752
H            3.53872009252614       -9.35918110663314      -10.80952812340519
H            3.60300713051394       -7.59483568342520      -10.84578630831424
H           -1.09594967216053       -7.46550831498483      -10.17498371946328
H           -0.98652917167296       -5.03883814642438       -9.65394536334004
H           -2.60048323503018       -5.44801044159362      -10.23335764100065
H           -1.45524256067067       -4.64439264785803      -11.30243146124512
H           -1.82556177075657       -6.55323543220901      -13.00277757194614
H           -2.87709786493937       -7.43991976335728      -11.91130754297169
H           -1.42836116162073       -8.21039425141392      -12.55566001426637
H           -1.39161961358408       -3.36708779487926       -3.13899536220520
H           -3.18271182408704       -5.01128729150266       -3.10590841004166
H           -4.34259021137383       -6.90203752436708       -4.15644359823388
H           -5.50618098790505       -8.81688123816575       -5.19714849388208
H           -5.66037574036156      -10.46446152166812       -6.99572063714144
H           -4.01065801818751      -10.46815172076756       -8.82909983243683
H           -2.20787201567981       -8.82531991277474       -8.87210257821899
H           -1.08274020150126       -6.85282162980193       -7.85873529833167
H            0.73339060033179        1.77599635291628       -1.34998378265204
H            2.84843784642568        2.92073464422593       -3.24052199793483
H            2.95321964817794        2.90882679267470       -1.47926689896039
H            1.72866900224927        3.88185333300399       -2.28773660067386
H            0.88808165569283        1.77824281402621       -4.41368660822497
H           -0.25320733453668        2.72852379373950       -3.46806778035793
H           -0.35479764047625        0.96772305494710       -3.47674951586090
H            3.62647390334899        0.98989721988263       -0.55942574676795
H            4.45864625770639       -1.84640933285068       -1.34554117174832
H            3.51131651296682       -1.41662978576820        0.08071096583757
H            5.19178680398139       -0.90886380023127       -0.05357763372923
H            5.11139368436897       -0.04257038973956       -3.03730824438223
H            5.84961100790746        0.91034672161738       -1.75394595032503
H            4.61257556871441        1.62274933905345       -2.78968817726616
