81
 energy: -18.025940429511 gnorm: 0.000430112596 xtb: 6.6.1 (8d0f1dd)
C            0.84197595127701        0.04177287159310        0.01676658324322
C           -0.37999918942338        0.00151322618966        0.07897152991456
C           -1.77508718448833       -0.03933691370371        0.10589308991769
C           -2.46566435543770       -1.22209261318616       -0.02124253579644
C           -3.86853021261312       -1.27739163116179       -0.02936644051628
C           -4.65138088689579       -0.15276834472728        0.08994538814499
C           -6.04514698387771       -0.22276733503936        0.05727565880693
C           -7.26680485965484       -0.27640238310563       -0.00087093232662
C           -8.66461326435335       -0.34005374201824       -0.10647064951500
C           -9.28162967325009       -1.43470656024387       -0.70831520650646
C          -10.64847887743977       -1.49011639367711       -0.83481911264564
C          -11.45209711209087       -0.45360953101089       -0.36397497451528
N          -12.87489432607808       -0.50892758536387       -0.50824455680044
C          -13.55209286128354       -1.77534696956477       -0.49870373843383
C          -13.16857269889331       -2.78276335278283        0.38276236573838
C          -13.81537180940665       -3.99791004321398        0.38390520227900
C          -14.85682529127523       -4.22913420173245       -0.49334856333075
C          -15.25091018352972       -3.23886280708117       -1.37177981385536
C          -14.60599395528314       -2.02276409457654       -1.37447771569288
C          -13.63358613266704        0.69454470623098       -0.70081844250782
C          -13.13557495570622        1.73709160432275       -1.47810356219685
C          -13.87079472893337        2.88551069443058       -1.66662430476199
C          -15.11682678812487        3.01362099489943       -1.08477223850930
C          -15.62591713828459        1.98729413465902       -0.31345058493066
C          -14.89240422407135        0.83810067223417       -0.12323858187109
C          -10.83478486965613        0.64003376428752        0.24057960426038
C           -9.46722949437646        0.69725256838305        0.36370053086527
C           -3.98925872763333        1.11471156846266        0.24119523853394
N           -4.55034133277608        2.29842174912722        0.37031602403046
S           -3.35420244575115        3.41997647631837        0.49254590409899
N           -2.07214704840485        2.39690210087572        0.37708986215026
C           -2.53669248049632        1.17233969781248        0.24582596026990
C            2.23992640232180        0.08513306063637       -0.09733541907068
C            2.86467282227552        1.13133701694417       -0.77299551426232
C            4.23167389640466        1.16557983783704       -0.90666178161540
C            5.02650585242394        0.15391414925429       -0.37112432872754
N            6.44923768429850        0.17789841477576       -0.53070496398652
C            7.15022451436972        1.43039139224519       -0.55611348869518
C            6.77159127895479        2.47515262192433        0.28293218068200
C            7.44210075585754        3.67701355945962        0.25411177836649
C            8.50275710543504        3.85786680768686       -0.61183659299621
C            8.89128890800034        2.83076598185758       -1.44949153126635
C            8.22235996606811        1.62798927622589       -1.42234010328312
C            7.17662828909560       -1.04778098646734       -0.70197301011335
C            6.63602290284932       -2.10057154189052       -1.43584178299768
C            7.33805959096933       -3.27248683573161       -1.60492765389320
C            8.59287903921090       -3.41482094445888       -1.04582486366403
C            9.14348902148395       -2.37939202091541       -0.31626203771120
C            8.44306251602742       -1.20665754542436       -0.14549673435339
C            4.40203051101789       -0.88866804910493        0.31101248231645
C            3.03491847505414       -0.92240617844523        0.44515679785949
H           -1.90202605488550       -2.13313021971339       -0.12683342658396
H           -4.35748217168778       -2.23003878331753       -0.13985471826491
H           -8.66814841057256       -2.23675905689416       -1.08186224406258
H          -11.11535261629545       -2.33125820931148       -1.31637687574512
H          -12.36273071351083       -2.59239857940431        1.06988156886926
H          -13.50900460913075       -4.76973457539339        1.07084495821058
H          -15.36157956016821       -5.18131006984819       -0.49264451075624
H          -16.06288509909023       -3.41867640853777       -2.05721784355423
H          -14.90179773869564       -1.24988483621849       -2.06210290864394
H          -12.16998635450491        1.62597145753202       -1.93958145625263
H          -13.47426696448468        3.68512195157491       -2.27065915631556
H          -15.69158271328606        3.91308169179294       -1.23324391826711
H          -16.59830753930401        2.08604149807512        0.14061554271977
H          -15.28017166656561        0.03713929981435        0.48155909005974
H          -11.44800223229219        1.43896928193884        0.61884439482288
H           -8.99725084713315        1.54785667572294        0.82714546487406
H            2.25657983747071        1.91288372544145       -1.19564440856817
H            4.70537804191146        1.96830812981499       -1.44395608238309
H            5.95049012887059        2.32434518066851        0.96174396281254
H            7.13931810049454        4.47778849666082        0.90874564711893
H            9.02654223162678        4.79943634370091       -0.63421560605750
H            9.71810353930967        2.97126041026881       -2.12632338040388
H            8.51379143064516        0.82708454718558       -2.07904445128160
H            5.66321696840092       -1.97904496028065       -1.87917809610499
H            6.90871090417066       -4.07935455031508       -2.17600305095829
H            9.14195842540193       -4.33249223411942       -1.17931643582688
H           10.12260657168239       -2.48952890516501        0.12038574969930
H            8.86321495022427       -0.39903254804226        0.42796800163711
H            5.00991361260504       -1.66637130060660        0.73901022558999
H            2.56012915755794       -1.73317379715934        0.97082954355908
