114
 energy: -20.944883838960 gnorm: 0.000719363472 xtb: 6.6.1 (8d0f1dd)
C            4.66200853851026       -3.12397650609558       -1.27185197608931
C            5.00990604081960       -1.83549126010221       -1.99132795569501
C            4.43077690725785       -1.80136571572513       -3.39523158437190
Si           4.48075040891702       -0.26185811472830       -1.05065332992899
C            2.79139489551831        0.16430695828759       -1.44757860630084
C            1.63589018938642        0.60101128281249       -1.62445986963834
C            0.60009134031312        1.52988523704854       -1.43550290879516
C           -0.66956242566604        1.32334777291914       -2.06107622325506
C           -0.90400161591768        0.21133403711447       -2.86555740468206
C           -2.14413288507771       -0.01596874443857       -3.47101028387784
C           -2.38590177685881       -1.14541961380034       -4.28791651629911
C           -3.60797023424968       -1.33965933978790       -4.86231895285347
C           -4.64719671036393       -0.42308324156316       -4.65332124166081
C           -4.45398498793004        0.67845925509449       -3.87235844355923
C           -3.20107998463559        0.91650289299307       -3.25860031852192
C           -2.96848459640593        2.03501947153503       -2.45333718523803
C           -1.73021302793795        2.26222310872450       -1.85348737017991
C           -1.50441195810904        3.40099025445014       -1.03796178836856
C           -2.52052657569130        4.32236191310984       -0.76098488443389
C           -3.29260048098589        5.15798987333863       -0.32758593396723
Si          -3.89776883301309        6.31770629477223        0.89049559078796
C           -2.47211427649799        6.45500877299591        2.15454274145725
C           -2.63345419191536        7.55295825012332        3.18875815454675
C           -2.18243034975433        5.10507241223202        2.78741128912611
C           -4.19565126629797        7.96910230623447       -0.01015375329198
C           -5.07678060918961        8.93261625228727        0.76381974457469
C           -2.87192279374071        8.58776821550233       -0.42276289772706
C           -5.52367563171103        5.65182803818838        1.63616668623609
C           -5.54066714931886        4.13291726462279        1.61782026461269
C           -5.82588625003027        6.20913919123918        3.01454788033768
C           -0.25124104148574        3.61989583400892       -0.43529092567530
N           -0.10231709101112        4.73898982463455        0.30929168556875
C            1.09536628774167        4.86158595959870        0.85258820640502
C            2.11515259442480        3.92611528067962        0.70930440679695
N            2.01400882155472        2.82365514035643       -0.01920497452250
C            0.81233848253899        2.67093584587103       -0.61685017518645
C            3.37740310609922        4.31962222011511        1.47625354710245
C            2.94271976764109        4.52519135346345        2.92498983989717
C            3.44571058552981        3.88839106200080        4.04327230897221
C            2.93296180124042        4.19958932742074        5.28738290213058
C            1.92718850296209        5.14047649133945        5.41714746183881
C            1.41962314248118        5.78081169252184        4.30385122738596
C            1.92526332645377        5.47130496508004        3.05578354851308
C            1.49217019498938        6.05699382917557        1.71636403486192
C            2.74931197349931        6.63532648604320        1.07313466178218
C            2.93817512180867        7.92950171799041        0.62767161825734
C            4.14664704914786        8.27894141782428        0.05730759774792
C            5.15975099812027        7.34553601815220       -0.06926880923516
C            4.97757867963774        6.05007462545612        0.37310570905301
C            3.77145206208611        5.69385603832084        0.94528308805380
C            4.58179317213342       -0.47682779496209        0.84500525971815
C            4.57181598203881        0.86329357082179        1.55511807617466
C            3.43704567075721       -1.34416324072169        1.34484116746226
C            5.61067796515658        1.12910219951232       -1.70283099708758
C            4.99486508579760        2.50385080136674       -1.51043767318624
C            7.02439895409049        1.03294203661514       -1.15843444862405
H            5.01513993240200       -3.99599435627754       -1.82545607730375
H            3.58124688330255       -3.22390817534774       -1.16491238071331
H            5.10847767604823       -3.16380096667170       -0.27710279232138
H            6.10315001556043       -1.73216605060495       -2.04080420202548
H            3.34204239580555       -1.86482754378290       -3.36032859504003
H            4.79023721884082       -2.63743391771276       -3.99833037515257
H            4.68563286796818       -0.87726766159649       -3.91671646169865
H           -0.11068017972627       -0.49542580500433       -3.02449051860827
H           -1.58956780318289       -1.85131081759714       -4.45001141097818
H           -3.77866177636689       -2.20484143102971       -5.48204924985040
H           -5.60618632390906       -0.59335536994787       -5.11496340875372
H           -5.25378005241600        1.38117939438260       -3.71353333488322
H           -3.76542583532629        2.73810949375732       -2.29411230374788
H           -1.64285518937238        6.71512911458119        1.48013620518237
H           -3.47002330365374        7.34484333878119        3.85469160866512
H           -2.81150107307912        8.52389035253477        2.72659197480914
H           -1.74099248533869        7.64386182597840        3.81074378325514
H           -2.98875062849203        4.80791599868386        3.45798585599111
H           -1.26140872608787        5.12664753379600        3.37224622266298
H           -2.07409639839002        4.32541617519400        2.03136121505564
H           -4.73365675382777        7.62969542765808       -0.90800371097470
H           -4.60239616897445        9.23514169502232        1.69693856647641
H           -6.04035640237446        8.48562531673326        1.01346514515802
H           -5.27229017025608        9.84012787460162        0.18945605407997
H           -2.31508060006896        8.93291555282464        0.44893807122891
H           -3.01909476489774        9.44808451396000       -1.07861793695622
H           -2.24242739833183        7.86699189807621       -0.94852426196236
H           -6.26493562750567        6.03080293772796        0.91714075766648
H           -4.77705447131427        3.72888840953029        2.28311000837580
H           -5.34235744250805        3.74143089199770        0.61826047740962
H           -6.50439484001871        3.73943928726333        1.94667059901848
H           -5.13116871653847        5.80892874042357        3.75316694292440
H           -6.83250348841190        5.94043397958970        3.34064100125235
H           -5.74641291855936        7.29677506761303        3.03845012343375
H            4.18402731930520        3.58566131542709        1.38223804454556
H            4.22931459618111        3.15890854796752        3.93340632882182
H            3.32083022304857        3.70590575366166        6.16355188338932
H            1.53656693772802        5.37637616753653        6.39364289354328
H            0.64078346602119        6.51781553392289        4.39577885689275
H            0.68507583792898        6.79344384424167        1.81123387499436
H            2.14276636862371        8.64785940989495        0.72634998489039
H            4.29989386522187        9.28663821061633       -0.29314964672608
H            6.09775358981804        7.63008171387094       -0.51762719425845
H            5.75948392000178        5.31671733567678        0.27698909109486
H            5.54369289413887       -0.98371877710118        1.00470675417560
H            3.65851749693197        1.40733755428172        1.31084332612854
H            5.42164911150735        1.48447395975265        1.27464938333759
H            4.59943832692287        0.73956762985687        2.63939591737513
H            2.47945497997416       -0.86365701533126        1.13824092069059
H            3.49875027492822       -1.50126479066153        2.42332346414989
H            3.41792676266346       -2.32364737172565        0.86913705594071
H            5.62445564097085        0.89819435649100       -2.77815752899562
H            4.99731886199030        2.78754975269792       -0.46033169675475
H            3.95787424483889        2.53128252552351       -1.85082436879813
H            5.54859689162905        3.27139060652738       -2.05439517411980
H            7.05076393758975        1.24778685062951       -0.09055812453094
H            7.68943137074577        1.74585864926861       -1.64973137352814
H            7.44235485140414        0.03466619275861       -1.29877155390622
