103
 energy: -18.678923793979 gnorm: 0.000993108538 xtb: 6.6.1 (8d0f1dd)
C            1.80240910050323        1.10753525700086       -0.45834560793159
C            3.14675107620819        1.03850538009553        0.24363424583493
C            3.28924949627919        2.15642529824236        1.26412286365240
Si           3.48044416572179       -0.65250579695319        1.06960835623355
C            2.85221740258940       -0.62386757922374        2.73798016231407
C            2.40788961254439       -0.66573111023595        3.86869595823511
C            1.88582312055276       -0.75015702551082        5.16809810942373
C            1.48534714018750       -2.00870429591012        5.68879398158259
C            1.60236951258781       -3.17806623537667        4.93354339073676
C            1.20163497445469       -4.41378345016341        5.43017956924241
C            1.31174815782425       -5.60566806771696        4.66436435256201
C            0.90823079955355       -6.79741593296794        5.17543643709024
C            0.37286563801350       -6.87551306203377        6.47600800855472
C            0.24986458011607       -5.76080776502840        7.24207709619255
C            0.65912814400311       -4.49207381551847        6.74876949356864
C            0.54616740829865       -3.33133492968323        7.50757937964534
C            0.94526769652296       -2.08672260006800        7.01174565936165
C            0.82398798866065       -0.90455953074320        7.78663863298810
C            0.30529867643783       -0.95106490762203        9.08879600872803
C           -0.13660620116356       -0.89526161248958       10.22037298571363
Si          -0.73683002436552       -0.43963575263690       11.83838846381037
C           -2.18289652483701        0.76517596534326       11.52188635459664
C           -2.98665782493205        1.13553988462915       12.75440961341895
C           -1.68981603724133        1.98560599055842       10.76520771884934
C           -1.31644282269384       -2.04449608814596       12.68534677481668
C           -1.45299292380352       -1.92065548221605       14.19190201798171
C           -2.58068946530108       -2.56328719555837       12.02455353424758
C            0.71374635082446        0.33131210023827       12.81272549007632
C            1.69274027735332        1.01908214153752       11.87619482304360
C            0.26699853904590        1.24399642265936       13.93934526354080
C            1.21979712021717        0.33966497709701        7.26893338930522
N            1.07332939199294        1.43720676283912        8.05770360504927
C            1.47070132832754        2.53945409460639        7.47507728545272
C            2.00122919130063        2.61145170882077        6.16513431285136
N            2.15514654983378        1.59532850145035        5.37175156558007
C            1.75843320529688        0.41717200969291        5.93227498625471
C            2.32866722515330        4.04771467675124        5.85977512263835
C            1.93904093227343        4.79913771928723        7.10212610950877
C            2.00894110627316        6.14411633466838        7.40349472779377
C            1.57280081173950        6.57575527493038        8.64428336139772
C            1.07380723020513        5.67538763141969        9.57355326094095
C            1.00245629949581        4.32928258876017        9.28024824963542
C            1.43787501049191        3.89109578492774        8.03827521596784
C            2.60386105811199       -2.04351555038673        0.09480992078442
C            3.28764090782072       -3.39199517751395        0.23340397468732
C            1.14082105919236       -2.13170213625813        0.49778634942559
C            5.36079139279529       -0.98819946362598        1.12101135521261
C            6.18775855759761        0.27829015923202        1.25120029807476
C            5.68912192084729       -1.97070334893148        2.23352093246194
H            1.67532181326746        2.05853712951391       -0.97921946490622
H            0.98892373669924        1.02375828181427        0.26316619377315
H            1.68409487643945        0.31110134004672       -1.19428823527120
H            3.94880666994202        1.10551181197042       -0.50489351752992
H            2.51132280280252        2.07988749955241        2.02544405361990
H            3.19696901207142        3.13883894757154        0.79710298725602
H            4.24842610161277        2.12049969595777        1.78072036025307
H            2.01179962375876       -3.12295069548180        3.94160170127361
H            1.71904317202578       -5.54841399134809        3.66943961196970
H            0.99589681097288       -7.69396299218470        4.58356766615680
H            0.05975914863216       -7.83167181373912        6.86265264975682
H           -0.16130569381366       -5.82398388569448        8.23491269865485
H            0.13847336636731       -3.39356200920944        8.49995002557667
H           -2.81055506633839        0.15856032827275       10.85187209227815
H           -2.38406375853934        1.70681639224908       13.45951481905672
H           -3.36027122151563        0.25412046455443       13.27581871062053
H           -3.84826710114794        1.75281442873965       12.49294392442507
H           -1.07976607157674        2.61837592886198       11.40996663738558
H           -2.51948426599317        2.59492385900876       10.40161375876540
H           -1.07975478450971        1.70255995062770        9.90489906981595
H           -0.48131400116480       -2.72261231479486       12.45347185487597
H           -2.22448612137273       -1.19862621089893       14.45795196664865
H           -0.52107117755733       -1.59402097353040       14.65601617447244
H           -1.73039271680805       -2.87467184606071       14.64424816584381
H           -3.42484505132141       -1.90407439000634       12.22964769161056
H           -2.84515744102814       -3.55717013742866       12.39094372728432
H           -2.46728401300736       -2.62362330831422       10.94024887688448
H            1.18977631010079       -0.56569825654469       13.23579689382610
H            1.23132301415337        1.88626952491587       11.40509101290442
H            2.02224419267402        0.35310167547055       11.07673071386191
H            2.57933128749284        1.36799919294495       12.40893052189681
H           -0.16309660392064        2.16431794076861       13.54385032838233
H            1.10612065663185        1.52951839300042       14.57671940496161
H           -0.48512289397925        0.76968609593344       14.57116434110582
H            1.76243838904365        4.39844473135212        4.99065339452771
H            3.39576290068108        4.16503824939529        5.64393781587215
H            2.39705342731534        6.83632106288658        6.67660747825964
H            1.62024028684045        7.62406746583742        8.89004747677123
H            0.73732955905285        6.02978556034280       10.53427006610752
H            0.61729698994653        3.62036729706632        9.98982980442154
H            2.68847359394753       -1.69979783885926       -0.94579966653594
H            3.24322277352165       -3.73964370686769        1.26628821106338
H            4.33630547726907       -3.35131159879277       -0.06413959202620
H            2.79932061552498       -4.14925250643061       -0.38300086143953
H            1.04957014170240       -2.46176200029064        1.53362403365508
H            0.59733148245071       -2.84618094006133       -0.12346104463959
H            0.63453648912634       -1.16956373992687        0.42109173022550
H            5.55320444775410       -1.44824243003122        0.14146876357531
H            5.98909450643193        0.76868320137051        2.20489251670804
H            5.97231208518162        0.99167743918702        0.45467743495098
H            7.25665560495031        0.05896621102572        1.21677011596478
H            5.47972379162002       -1.52659595153978        3.20788707097355
H            6.74378593656347       -2.25225241514324        2.22066609499396
H            5.09909855617302       -2.88446289948007        2.16282857783310
