120
 energy: -22.262506238827 gnorm: 0.000649253933 xtb: 6.6.1 (8d0f1dd)
C           -0.87518274855654        0.06984285762079        2.95756559819243
C            0.00416434395095       -1.09876461880451        2.54367704162121
C            0.53401587650444       -0.90978058738450        1.13311823068815
Si           1.37742259208136       -1.38816960086012        3.84259146347970
C            1.79853800716267        0.15989902382277        4.62395274040760
C            1.89300643384352        1.08919038348440        5.40291515317688
C            1.95824404392637        2.09912346168582        6.37233026266641
C            2.49651628086182        3.37731368383947        6.04770047192744
C            2.96001658171442        3.66592293157848        4.76596857625048
C            3.47996775792251        4.91899310079034        4.43764060159381
C            3.94653772936976        5.22272239268406        3.13334477746859
C            4.44399101450091        6.45526430587181        2.84378473647832
C            4.50609320060920        7.45212688177381        3.83265301028005
C            4.06937681494287        7.20151374837621        5.09626910834068
C            3.54248662218363        5.93048996881087        5.44064674107917
C            3.08275398251571        5.64328919469635        6.72654779013866
C            2.56017175275696        4.39399641194617        7.05547843075136
C            2.08401850750988        4.10913459720805        8.36477578324538
C            2.12849692298176        5.07535434387991        9.37860908877969
C            2.08205503027957        5.84540028791316       10.31929586366166
Si           1.60807393124572        6.72992325186511       11.78865147026802
C            0.27070098348842        7.83863319576953       11.01860874186453
C           -0.49723504291938        8.60817875033653       12.07784038090124
C            0.92372774606508        8.76812898489603       10.00903551132884
C            0.59183849057550        5.32301696377438       12.57674124214008
C            0.30944557548232        5.61108539146826       14.04053158423326
C           -0.65494325319116        4.91436293344495       11.81129566642438
C           -0.65744688579509       -1.74562763247447       13.84252605476245
C            1.42602852514664       -3.16124846054046       14.41524980184309
C           -2.03624156751053       -1.86057209439221       14.50020502177911
C            1.53998747885379        2.85330652165249        8.67326149187582
N            1.08816710393240        2.64940851661560        9.92476825476290
C            0.58316378501499        1.42254935406472       10.17821948121270
C            0.14743174530919        1.13158881010781       11.45014283871099
C           -0.35087594670261       -0.15348543532322       11.83179541124933
C           -0.59482817810667       -1.12645942611592       10.74803463587232
C           -0.06121931530094       -0.82318120849047        9.47910538212436
C            0.51988261689687        0.39683900849527        9.16282763932269
N            0.95952515232809        0.60445230556819        7.91241617826157
C            1.47720905985229        1.82813256730870        7.66036332016562
C           -1.43345189161048       -2.22032987136685       10.93685629336368
C           -1.63350469922891       -3.35056966593708       10.08500591648506
C           -2.64778132853197       -4.28084899862485       10.39671373518763
C           -2.83018914600762       -5.40037187796551        9.61808412723603
C           -2.01536708022816       -5.64331789143390        8.51791706834940
C           -1.01455443169714       -4.74382299086222        8.21157472177634
C           -0.86857870530752       -3.65670055707426        8.98969179632060
C           -0.46485301088154       -0.41556129053498       13.16776582771501
C            0.45992518168799       -2.02762324558981       14.82626928595400
C            0.58768347167398       -1.24494418766792       15.93028729820600
C            1.50488558813921       -1.27092622454412       17.01141236899683
C            2.52783771458982       -2.15753101216006       17.32120584918963
C            2.92695175332025       -3.25914861199754       16.58241841871342
C            2.40024499497961       -3.59996234039091       15.40163340017393
C            0.70010458222111       -2.50748979708686        5.23414235361893
C            1.57514498844851       -2.40410487658975        6.47358911486333
C           -0.74590379290488       -2.17652063465242        5.56063696659440
C            2.90250593775567       -2.18474825403689        3.00945147185800
C            3.77299082550168       -1.10576323200641        2.38803454823887
C            3.70906550674958       -3.07654031772811        3.93518462281754
H           -1.73358666803565        0.18007290475670        2.29207189518917
H           -0.30998119540160        1.00252286064415        2.92285219683114
H           -1.25202057299859       -0.03934767100653        3.97476379052161
H           -0.56867795079442       -2.03584702726880        2.59118724140546
H            1.12700115766723        0.00273571790764        1.06467016681400
H           -0.28119015590788       -0.81922645546843        0.41262340519314
H            1.16174624149015       -1.74308257090970        0.81536203067243
H            2.91266168356199        2.90615480649794        4.00742374483198
H            3.89934353980273        4.46125110608875        2.37391380075437
H            4.79390730039431        6.67348208463818        1.84794786801786
H            4.90315350403124        8.42268332509381        3.58348289886178
H            4.11697600059908        7.96656823565322        5.85204766223383
H            3.13079232730515        6.40701369677642        7.48097642084664
H           -0.40166015561584        7.14906466157849       10.49101852960802
H            0.18120076569769        9.22176784234807       12.67238328057065
H           -1.02632899455729        7.94457609201772       12.76185156307138
H           -1.23569949397982        9.27445194999016       11.62787506074649
H            1.63554547582217        9.43098821155206       10.50348476814731
H            0.18522891696006        9.39327611914398        9.50322468660255
H            1.47116726699121        8.21149127365905        9.24588773142021
H            1.32568007825400        4.50430083527318       12.51254905585515
H           -0.42413358346766        6.40933767333584       14.14994144592657
H            1.21409259199580        5.92385206317356       14.56554147160988
H           -0.08855616362139        4.73169380715590       14.55080294759062
H           -1.41439317853259        5.69522871966743       11.85240290453538
H           -1.10070316256561        4.01102822677205       12.23120529594989
H           -0.43302151540056        4.71499326597069       10.76142029365810
H           -0.57177702819768       -2.52768619586154       13.07390018748093
H            2.09927449171581       -2.46647508520013       13.73434788800354
H            1.43752122745789       -3.69472558463685       13.36300360178553
H            0.61875015969934       -4.02023240689026       14.50868847740214
H           -2.15514060572370       -1.11467078679161       15.28547716131515
H           -2.17744049172759       -2.84151686430125       14.95606255289954
H           -2.84271774867760       -1.70051019115377       13.78390292030777
H            0.26292454428497        1.88824893301652       12.20415041223201
H           -0.17675613079762       -1.52670843364967        8.67979553979659
H           -2.05274658800886       -2.20493980794741       11.81484680960474
H           -3.27715745545783       -4.10547573674117       11.25202792979793
H           -3.61041719427104       -6.10101838858459        9.86555323511465
H           -2.15980579252532       -6.52385404254201        7.91425723230050
H           -0.35409253060759       -4.91099570131103        7.37355430013795
H           -0.27805721355250        0.40479482693647       13.83789228770855
H           -0.14680892547660       -0.45704669034081       15.99943735783513
H            1.36399909463157       -0.47885869254227       17.73278458678148
H            3.06408036241257       -1.97788350961866       18.24062153033643
H            3.71954228423731       -3.88209933831907       16.97358406552519
H            0.76318231400216       -3.51802555318525        4.80678472941260
H            1.54700186179717       -1.39094098935436        6.87556346806605
H            2.61833657429709       -2.63733697744506        6.26587358278208
H            1.23755369403152       -3.07805751799213        7.26180923059794
H           -0.82732290967516       -1.15516727273874        5.93527266736305
H           -1.14312468356965       -2.83471004294356        6.33399175174063
H           -1.39383378211454       -2.26956772575214        4.68814787176954
H            2.45042728539438       -2.80405970535660        2.22212685181028
H            4.20493335416790       -0.47120831363141        3.16347603938502
H            3.20566557059050       -0.45800676137860        1.71927902149589
H            4.59833230188479       -1.53626171084649        1.81761014563153
H            4.15808756364288       -2.49002439539538        4.73746975378594
H            4.52440992439833       -3.56841566956035        3.40120811039431
H            3.09352319876158       -3.85633462760975        4.38612577328474
