82
 energy: -15.226552500477 gnorm: 0.000567083948 xtb: 6.6.1 (8d0f1dd)
C            1.09878314660372        0.19129160970917        0.37299126744986
C            2.44558380126985       -0.35639585011189       -0.06440653795725
C            2.51604503317839       -1.86149206349978        0.13717134710741
Si           2.89280696510915        0.09234422347218       -1.86760051362269
C            2.26120492674389       -1.16081955755038       -2.96946077051429
C            1.91971279232521       -2.05390143396680       -3.72225739424524
C            1.56575209616394       -3.10062063515437       -4.58656205786093
C            0.73640352529167       -2.85243766412536       -5.70484082367101
C            0.24553807462927       -1.56813972773495       -5.97084683473143
C           -0.57114592730744       -1.30417703732438       -7.06392191927150
C           -1.07114609701530       -0.00135178537436       -7.33446274683832
C           -1.86595847136710        0.22579453923013       -8.41215274097029
C           -2.21113670199068       -0.82573425473887       -9.28380847026045
C           -1.75589734207995       -2.08626012786127       -9.06272316929144
C           -0.92156926484989       -2.37146045461771       -7.94769032566399
C           -0.43837865530881       -3.65043107878376       -7.69483143429469
C            0.38420436938725       -3.92871864119797       -6.59541677089910
C            0.86861686517294       -5.23629698971314       -6.35350536816522
C            0.53271813820454       -6.28271856172405       -7.22699201303243
C            0.24696123145523       -7.18348035341953       -7.99452232262674
Si          -0.16162584117284       -8.48288845479840       -9.15005554385221
C           -1.03343918691900       -7.79493975706486      -10.65641889069240
C            1.37602827748880       -9.37119927483819       -9.74065348637887
C           -1.28966832276208       -9.75837171229016       -8.37369964744073
C            1.69520929177692       -5.48480329682838       -5.23195805371219
C            2.18680238368485       -6.76843899434157       -4.96160683768668
C            2.99878577351835       -7.02949723415117       -3.86351919496554
C            3.49658471029712       -8.33160212432165       -3.58543180003800
C            4.28575033875220       -8.55578999731048       -2.50278639107731
C            4.62818130339857       -7.50181105052557       -1.63298078768890
C            4.17595222940323       -6.24149813149900       -1.86115998383092
C            3.34730633870266       -5.96025951839892       -2.98123775362430
C            2.86690997225021       -4.68223930418275       -3.24017234155374
C            2.04654152006536       -4.40789214425492       -4.34182129610023
C            2.13525166691676        1.78709833071819       -2.32248850887365
C            2.91886640039165        2.52113412701522       -3.39615867165993
C            0.67853970457607        1.62652918968285       -2.72546099122844
C            4.79370391289087        0.17289672037624       -2.05093668737644
C            5.53137482910944       -0.76781013035208       -1.11490161455418
C            5.19086828928025       -0.07501895283306       -3.49690594091996
H            0.90532796680591       -0.02624066753096        1.42527282522023
H            0.29371233900801       -0.26489084534927       -0.20407667526739
H            1.03557271890069        1.27259497160553        0.24365443845693
H            3.24017568035400        0.13876705614004        0.51104805784990
H            1.74052648866896       -2.36136939299883       -0.44545567177542
H            2.36665278667564       -2.13232979676545        1.18420699232298
H            3.47393431808040       -2.27397030804984       -0.18070371381263
H            0.50837657016633       -0.76154397403935       -5.31174723343510
H           -0.80927273793061        0.80403674889180       -6.66979476077209
H           -2.23840509242807        1.21849592300575       -8.60626207286778
H           -2.84306923540851       -0.62321677144338      -10.13319887064692
H           -2.02171663922201       -2.88731090156045       -9.73094133262756
H           -0.70487617878047       -4.44797896846640       -8.36373793998794
H           -0.39449757321935       -7.07298826996004      -11.15763318788295
H           -1.95407189590642       -7.30025421859750      -10.35906235569041
H           -1.27262411613576       -8.59523921020015      -11.35140098643688
H            2.04416951315272       -8.66982805667836      -10.23285944166217
H            1.11075329671591      -10.15649823472439      -10.44322134178699
H            1.89552014384446       -9.81550832708631       -8.89603216679242
H           -2.21429098184900       -9.28876148795623       -8.04953083524141
H           -0.80428381879640      -10.20792686427376       -7.51177952088010
H           -1.52469972305707      -10.53911306630724       -9.09192805384189
H            1.92826056646869       -7.57681343683900       -5.62056668041107
H            3.23727505071450       -9.13933488859869       -4.24812079996696
H            4.65587734542137       -9.54825534161551       -2.30323034607515
H            5.25535906376687       -7.70212626052771       -0.77954895604241
H            4.43915972551919       -5.43790822257465       -1.19481581766024
H            3.13307030349549       -3.88242488244943       -2.57372337323123
H            2.20581441732118        2.34376044144180       -1.37724436019826
H            2.88815134741533        1.97000941717516       -4.33695229927378
H            3.96527111738116        2.65657621334621       -3.11945164630607
H            2.49844517470439        3.51050498566407       -3.58726911134597
H            0.60107364798685        1.06860402888535       -3.65937568004778
H            0.19706441010359        2.59386982469080       -2.88139366898495
H            0.10256405536518        1.08292622061416       -1.97660447709348
H            5.01869791016197        1.21154935118020       -1.77048970805218
H            5.29964674415152       -1.80640159840635       -1.35377192104990
H            5.26918952378858       -0.59546896729930       -0.07015618959359
H            6.61290195027500       -0.64923976869436       -1.20658017075136
H            4.96975520854757       -1.10470019747225       -3.78139203956677
H            6.25936316759718        0.08624892467464       -3.65251970894654
H            4.65070334297360        0.57288637349807       -4.18704517537171
