83
 energy: -16.182362857348 gnorm: 0.000771709093 xtb: 6.6.1 (8d0f1dd)
C            1.22378569583345        0.17646914807071       -0.37121322130497
C            2.63159360570675       -0.05154128794111        0.15021853131074
C            2.84124487612875        0.65349794439709        1.48024049530930
Si           3.09465868388148       -1.90063312869958        0.29391335114439
C            2.59991069922040       -2.52908732327934        1.88883238614541
C            2.26402693336570       -3.04291450060229        2.93946829276024
C            1.88051810539198       -3.66949535125565        4.13327289849411
C            1.44375633572307       -2.89799325272524        5.23556159749479
C            1.38130253547816       -1.50222495417269        5.16096450894210
C            0.95191665229630       -0.72636403285998        6.23151500552612
C            0.88660515193066        0.69040860285772        6.15705659201456
C            0.46223857404461        1.42093013208445        7.22032020820745
C            0.07850651198491        0.78843215447447        8.41762435138605
C            0.12574457404175       -0.56420752101064        8.53177089811063
C            0.56306675276387       -1.36824706379008        7.44635041285411
C            0.62401562618206       -2.75564814030295        7.53228477774743
C            1.05342294769835       -3.54541669400050        6.46140110182773
C            1.10798574530113       -4.95813437184858        6.56679511753603
C            0.74207742301912       -5.58308630603581        7.75467633921776
C            0.43207154031389       -6.12856432467588        8.80757854527599
C            0.08857293142845       -6.74591323340870       10.02082763806181
C            0.41647427518880       -8.07684603102464       10.26002616232364
C            0.08344723328870       -8.67805178172924       11.45354492387357
C           -0.57958663906580       -7.96518624764765       12.43037274136764
C           -0.94675876449325       -8.64832246332973       13.73956371676021
F           -1.90352643038494       -9.56842691361160       13.48519354735278
F            0.15862680004605       -9.24844684418969       14.23479682356705
F           -1.40652874506150       -7.72293514247154       14.61093954926436
C           -0.91441059399880       -6.64592292777903       12.20448054672194
C           -0.58384975768837       -6.03918070988383       11.01304568808547
C            1.53950937775719       -5.73024377146024        5.45878563059033
C            1.59638303149579       -7.12553827652008        5.52704351792596
C            2.01274299373329       -7.89924595087208        4.44811343815761
C            2.06387757601463       -9.31666417283148        4.51251151170004
C            2.47238574697206      -10.04492881844011        3.44125127128134
C            2.85409701942205       -9.40905643236138        2.24510060837349
C            2.82050037323243       -8.05547698806662        2.13967731420421
C            2.39921326016966       -7.25422994277441        3.23402278868580
C            2.35068299060025       -5.86713756707955        3.15666290455582
C            1.92893384419817       -5.07980315621241        4.23419663484728
C            2.19560342505661       -2.89540683468976       -1.06818330231037
C            2.94373619960114       -4.14867412215280       -1.48823044381828
C            0.77791617782564       -3.22793077881167       -0.63157676120399
C            4.98415847550471       -2.10429616742834        0.08922995658034
C            5.77308516549355       -0.92121198438668        0.62181038424446
C            5.45205068121292       -3.40293776450476        0.72527993309905
H            1.01627840871748        1.23990877010268       -0.50168036596868
H            0.48719038506463       -0.21135544654501        0.33300013607685
H            1.06091462719195       -0.31028085629282       -1.33325530069761
H            3.35523657203260        0.31743489710118       -0.59002490945772
H            2.12339077245488        0.29368863103968        2.21785337507784
H            2.70278444212923        1.73184215262567        1.38645018390756
H            3.83714455015673        0.47780102896047        1.88618450244383
H            1.67312444176788       -1.01432372062336        4.24979826425412
H            1.17947610261926        1.17703043867912        5.24284337082189
H            0.41743163352082        2.49538086169391        7.15135720322924
H           -0.25523183975131        1.38700154934301        9.24919969611957
H           -0.16837214000648       -1.04426652919894        9.44904412605825
H            0.33143789072701       -3.23253168013185        8.44940881793243
H            0.93638368037873       -8.63229615445314        9.49826484353264
H            0.33568567355455       -9.70744650312093       11.64475773560250
H           -1.43480509281242       -6.10413057771236       12.97596304030650
H           -0.84240061986392       -5.00888971816684       10.83760843231091
H            1.30703032720848       -7.61678551997505        6.43763072432261
H            1.77149650221328       -9.80636838118390        5.42522295272642
H            2.50470207007501      -11.12025561387780        3.50315202560745
H            3.17414722113338      -10.00598258782631        1.40697311631400
H            3.11190797972152       -7.57199223232598        1.22330214518034
H            2.64364884533957       -5.38765724868052        2.24093598875111
H            2.17469240284380       -2.18847772496136       -1.90931945681733
H            3.00742432283582       -4.85350938751132       -0.65854588773883
H            3.95808833033643       -3.92753804688313       -1.82272125239204
H            2.43126809331234       -4.65929586335972       -2.30541365601654
H            0.79101538763336       -3.91600941318924        0.21477710299396
H            0.21412823755259       -3.70623248286336       -1.43417257807117
H            0.22635423375100       -2.34141519273006       -0.31942183341071
H            5.10312601052940       -2.15539925983356       -1.00199254331005
H            5.64745379572035       -0.83173212244195        1.70114221265910
H            5.45842277417431        0.01842140949531        0.16677601517115
H            6.84103551412391       -1.03793909737890        0.42954045222357
H            5.31780357528991       -3.36769870843152        1.80710130109998
H            6.51096078511344       -3.58303752560041        0.53236762186112
H            4.89494848490037       -4.26471684779815        0.35904348283497
