80
 energy: -15.737637999123 gnorm: 0.000314951425 xtb: 6.6.1 (8d0f1dd)
C            0.63150828692300        0.37453977223046       -0.15204717272542
C            2.09270798040834        0.10273245711312        0.16528274593305
C            2.87673553396005       -0.20119338793583       -1.09885057066668
Si           2.83634198412600        1.54086336762962        1.18149378286137
C            2.19898469127736        3.09764227818475        0.58683087824949
C            1.85677186788393        4.19991217715334        0.20094523426172
C            1.49440532072246        5.48170207748083       -0.23607468474747
C            2.04170833376208        6.62310814682788        0.39608247683206
C            2.94299650237918        6.49702789497937        1.45957227641416
C            3.49294180620590        7.60590364143387        2.09303908670631
C            4.40753100777132        7.48037105242975        3.17276470336382
C            4.92684377976704        8.58306154957659        3.77249290166647
C            4.56905975281796        9.87257547402726        3.33556350584626
C            3.69834672388551       10.03777828807669        2.30580112424345
C            3.13044161947135        8.91405044537719        1.64894891233480
C            2.23586102027363        9.05033060582578        0.59130519036792
C            1.67720126555595        7.94235233148089       -0.05304052883636
C            0.76925763849029        8.10001449110198       -1.13117083675879
C            0.42116776155616        9.37236042120148       -1.57170113613209
C            0.11632016270730       10.49210732798294       -1.96792438871152
C           -0.23020707592729       11.77176055263165       -2.42835925164073
C           -0.79111778450613       11.94669384274137       -3.69036775719191
C           -1.12906950678813       13.20300604572531       -4.14198389200978
C           -0.91697767079355       14.31613346406552       -3.34783656496276
F           -1.25083600189987       15.55429029938626       -3.79543381331214
C           -0.36016368922172       14.15134409460516       -2.09182556791602
C           -0.02041280599724       12.89696755003522       -1.63611601652872
C            0.22075940039986        6.95459740042104       -1.76259143751723
C           -0.67836813523461        7.07454277452933       -2.82673185539689
C           -1.22527005870091        5.96132343425398       -3.45854900853022
C           -2.13951361726412        6.08038177398401       -4.53869845913274
C           -2.65436165531250        4.97427829887356       -5.13655623270671
C           -2.29194587304351        3.68684077966958       -4.69743366278033
C           -1.42130897830018        3.52677024789626       -3.66714870344596
C           -0.85877580602490        4.65506721016486       -3.01256431301098
C            0.03495624355554        4.52469202195740       -1.95551563674131
C            0.58821803833140        5.63698080311511       -1.31140245270049
C            2.38931858266399        1.32803262495968        3.02775511240850
C            2.43274403001386        2.67089573934013        3.73877205706585
C            1.05677304453021        0.63501911989351        3.24886112324025
C            4.73805100017269        1.54794129997677        0.99001152101824
C            5.13893013520624        2.25280282054215       -0.29558882926836
C            5.45680086178448        2.14903850453346        2.18504360224821
H            0.16232126192818       -0.48175691021911       -0.63996134098045
H            0.54031065223535        1.22574206651583       -0.82752723674116
H            0.05346352047727        0.60812393791948        0.74174414956305
H            2.17581810925599       -0.74834662290770        0.85568523842980
H            2.83951788133049        0.64506152867740       -1.78566074012798
H            2.46155867560907       -1.06259997888248       -1.62519428859180
H            3.92438455362580       -0.41869212112851       -0.88751743980108
H            3.22006399695616        5.51545730809235        1.79761498599243
H            4.68287076864846        6.49557006155256        3.50899234970339
H            5.61966275872439        8.47459508358522        4.59087390394455
H            4.99240284625666       10.73413262773246        3.82545809383800
H            3.42721961983205       11.02532754457026        1.97433686330108
H            1.96826463268206       10.03717956820937        0.26136032587768
H           -0.95734600263810       11.08323111103153       -4.31178008224643
H           -1.56202968509078       13.34147861972855       -5.11679583209128
H           -0.19948846791776       15.02272805988123       -1.48210905180627
H            0.41266506913629       12.77321515839887       -0.65813010006686
H           -0.95681595036807        8.05431831589197       -3.16849896217674
H           -2.41908970607969        7.06320286755735       -4.87705098781207
H           -3.34710304373596        5.07893872384835       -5.95546806849204
H           -2.71139877416472        2.82271492162198       -5.18617045206696
H           -1.14614226657368        2.54121556298094       -3.33301279442245
H            0.30829969463519        3.53991638073578       -1.62506535642506
H            3.19712229115721        0.68032679612002        3.39630010632256
H            1.64000118352488        3.32335498935566        3.37008843657581
H            3.37779320148848        3.18980013842253        3.57876486864482
H            2.29103079652564        2.55802807394559        4.81515546495128
H            0.23863841618302        1.24683886143888        2.86768295947345
H            0.86805146936687        0.46882661989966        4.31103048504881
H            1.01303211040215       -0.33466697595372        2.75154019997944
H            4.97694315443925        0.47718567644019        0.92383552862693
H            4.89457516899000        3.31459211315580       -0.24044747311837
H            4.62143182066986        1.84797105526179       -1.16497935881117
H            6.21216893387039        2.17200506963484       -0.47733115367414
H            5.21296256832923        3.20714942786798        2.28642381359914
H            6.54011599368360        2.07667962065456        2.07274759282834
H            5.18926702886961        1.65063360177091        3.11737189158091
