104
 energy: -19.010130839974 gnorm: 0.000790016272 xtb: 6.6.1 (8d0f1dd)
C            3.23159229670886        0.97420103514336       -1.15896248206973
C            4.60116587273129        1.20820085893562       -0.54738738811022
C            4.99305788132085        2.67416068775202       -0.62618514982244
Si           4.74067242928291        0.58633201907886        1.25387941211913
C            4.19235550656500        1.84945854412496        2.38916078703282
C            3.64273754927169        2.49360641956088        3.26168077522419
C            2.92579479508492        3.12160111134378        4.29269974649378
C            3.01484990970427        4.51290868362888        4.50950003456965
C            3.83460749560100        5.34127515897765        3.70265218192813
C            3.92184852403466        6.67899015510372        3.93155150424514
C            3.19803702843605        7.26847404873816        4.97849620349324
C            2.39884123168156        6.50909347209701        5.77482495128821
C            2.27642732767650        5.11254159278649        5.56842276228207
C            1.44650324962180        4.31348955704595        6.38217711604728
C            0.72250364871345        4.85251042222914        7.45872734833920
C            0.10698918055627        5.18034378333481        8.45491741015305
Si          -0.68501120190876        5.27514228752500       10.05293154485782
C            0.16656953268818        6.68322028155948       11.01849928073835
C           -0.52922863536803        7.07471239697324       12.30915257191669
C            1.63465455911943        6.35939408329220       11.23018811031222
C           -2.52380625119305        5.64226197909059        9.71576640158763
C           -3.43718268705292        5.31560553717875       10.88319402123917
C           -2.69330441287968        7.06715577730889        9.22062323507209
C           -0.51835090023013        3.56618626955211       10.88902661021994
C            0.75504229576334        2.85815398518610       10.45714495984961
C           -0.66768097042478        3.60152349728468       12.39832418769946
C            1.34332988102009        2.92909386747611        6.15506125476454
N            0.50970171433854        2.21050210335501        6.93872740978725
C            0.47692805027832        0.91517090728596        6.69677232188846
C            1.28583378940782        0.29619933236995        5.70000193002333
C            1.23714859475459       -1.12895218866423        5.55872179777575
C            0.44735091645891       -1.90216016523088        6.33038923548451
C           -0.40872821120730       -1.32745967237370        7.32505632196724
C           -1.23956530055606       -2.10513926449565        8.11189822905876
C           -2.09619697383816       -1.52792185837485        9.06162017448197
C           -2.95331014632784       -2.30959605596496        9.87605768087068
C           -3.78379420444339       -1.71797262711628       10.77665878600346
C           -3.81095790639158       -0.32040235356267       10.91246619091547
C           -3.00295827226089        0.46394817616952       10.14957815546598
C           -2.11660388397115       -0.11441284599422        9.20789853118020
C           -1.26158920236517        0.66272152914120        8.41435103074952
C           -0.40970011520465        0.08817388252777        7.49456160817985
N            2.08139056164321        0.98613709644858        4.89902498056718
C            2.10709851615230        2.32021832078835        5.11131477553805
C            3.61271317188451       -0.93642859603033        1.50671243818343
C            4.09873975350056       -1.84793546943032        2.61939841738897
C            2.17717919133285       -0.50006141853810        1.75349416638872
C            6.55033084895292        0.10647981134977        1.63893893051111
C            7.56863550236213        0.91149684403960        0.85138333926455
C            6.81267640149937        0.20367064102090        3.13279804200702
H            3.20732646234757        1.28147444611430       -2.20627483513545
H            2.47311518788271        1.55624828395753       -0.63417508726440
H            2.93985956357575       -0.07614106893426       -1.11753260758854
H            5.34194246638125        0.59040023692014       -1.07438061963180
H            4.27310331929025        3.29063138620461       -0.08565334178033
H            5.01769852473701        3.02670330914611       -1.65913704781654
H            5.97252009355371        2.86088925701157       -0.18560621026393
H            4.39362829663892        4.89204730445482        2.90009188470674
H            4.55061356874983        7.29305744973835        3.30760670273698
H            3.27745267982187        8.32973327317433        5.14932796027341
H            1.84362996897451        6.96418130336804        6.57675018841092
H            0.08135963508112        7.51039415079388       10.29776124755915
H           -0.50764114388589        6.25828815432316       13.03025226765122
H           -1.57298954624221        7.34236858624334       12.14331470808816
H           -0.04076114184769        7.93155517644084       12.77722477069638
H            1.75388872360786        5.54679530033948       11.94726539772629
H            2.18214238893339        7.22000288782289       11.61983058834055
H            2.11309929699818        6.04906776615897       10.29905870048023
H           -2.73223591688999        4.94468217910161        8.89043519562965
H           -3.20622470249758        5.93705943628105       11.74786190106626
H           -3.34218564921689        4.27295913601805       11.19066159385540
H           -4.48416142114375        5.48958497074117       10.62762283439396
H           -2.48262151958814        7.78339664188483       10.01538122973089
H           -3.71204381717930        7.25249862795083        8.87472639134047
H           -2.01261619594862        7.28457986417608        8.39505852923771
H           -1.38271465036853        3.04648262265492       10.45332463343232
H            1.63501111531496        3.37524729874505       10.84032529708680
H            0.84663799337637        2.81955831617392        9.37036464089196
H            0.78732996906600        1.83249733346112       10.82951953146804
H            0.19759640776707        4.07486070832935       12.86256790733056
H           -0.74560244911603        2.59441852055701       12.81293782580573
H           -1.55489448254660        4.15677997075615       12.70563562793146
H            1.86776825473235       -1.57568752281246        4.81065057922437
H            0.44171821403929       -2.97068650762594        6.20115673656450
H           -1.23482163772648       -3.17308716594940        7.98912588769776
H           -2.93690047788374       -3.38073810814642        9.77033042571839
H           -4.43009391153270       -2.32414848794110       11.39038521705004
H           -4.48098136205806        0.13097273542858       11.62601927231534
H           -3.03734470590939        1.53486126609461       10.24660773550809
H           -1.27189858935417        1.73209046014047        8.51058689070312
H            3.68795834483827       -1.46275012767486        0.54471938145166
H            4.07474747041462       -1.32650863526005        3.57698434979160
H            5.11914168977810       -2.19395977712253        2.44969510487651
H            3.46352023985127       -2.73065033466072        2.71496632904690
H            1.80460668268194        0.15543055316480        0.96672723246870
H            2.10216489121404        0.04950944781974        2.69268596762262
H            1.50438621337637       -1.35700222906516        1.82127962180817
H            6.59338014465447       -0.94336679093381        1.31604398506474
H            7.52988664968007        1.96327814858654        1.13691990213006
H            7.39761930963384        0.84765700502997       -0.22401974138560
H            8.58476502924886        0.56200709762809        1.04427856148497
H            6.75675920455023        1.24219648681480        3.46264864254130
H            7.80560966367297       -0.17013733959114        3.39017333410223
H            6.08229772153531       -0.35808664333102        3.71523489238994
