98
 energy: -17.624728426964 gnorm: 0.000656811572 xtb: 6.6.1 (8d0f1dd)
C            0.74997916125662        0.10811069240321        0.04312323656357
C            2.22079742145666       -0.26763985866366        0.01958023171047
C            2.55731366100507       -1.22675751783366        1.14932518874323
Si           2.78111200510489       -0.99965786779375       -1.65416903706447
C            2.49334838785001       -2.75985253069338       -1.65620634234106
C            2.17487497405385       -3.92686463176630       -1.77666572289747
C            1.75737292346211       -5.25294588739521       -1.96804002195683
C            2.58740761358365       -6.33417632585304       -1.60718282504032
C            3.86703630170883       -6.12982488804282       -1.03171011159300
C            4.65621312977064       -7.18064713322049       -0.68248789722740
C            4.21550502755638       -8.49672825025151       -0.88611965535281
C            2.99524331015660       -8.73588055494711       -1.43664996392052
C            2.14179407762130       -7.66985565165437       -1.81700725097508
C            0.87634407627179       -7.90356775977891       -2.39373460421760
C            0.40441170818269       -9.20872345232309       -2.60909881202141
C           -0.06552214521853      -10.31475546340660       -2.79438103716872
Si          -0.95385225559783      -11.84586551050677       -3.02769483608535
C           -2.72311351072690      -11.35752744492339       -3.55083188575850
C           -3.59482478742600      -12.50769553967821       -4.01925054338023
C           -3.38676946600576      -10.53940106577678       -2.45728600104205
C           -0.04136902017950      -12.78117441217059       -4.41400681025260
C           -0.36206164034518      -14.26375632448938       -4.46537132968330
C           -0.25877441116629      -12.08904310278492       -5.74755840185460
C           -0.88046920918199      -12.84539721732999       -1.40276595990486
C           -0.81873244858587      -11.91855296826633       -0.20098088113757
C           -1.99038385618394      -13.87177296181605       -1.27419191867355
C            0.04861463487111       -6.82513802667061       -2.76063956543391
N           -1.14654347249531       -7.09598842592864       -3.32315145625001
C           -1.88366111840432       -6.04448179911545       -3.63606257948891
C           -1.46068364154204       -4.70782835928408       -3.38659515269941
C           -2.34034872072525       -3.63448323848884       -3.72718088883702
C           -3.55176952495073       -3.84891569170793       -4.28299603140844
C           -4.00828789875232       -5.17275434830311       -4.56478536182936
C           -5.25966660828545       -5.41933930463410       -5.15008810428061
C           -5.66706424492468       -6.70017682486426       -5.41673824192501
C           -4.84044025474314       -7.77676646976297       -5.11110232552385
C           -3.61583862564345       -7.56038313611884       -4.53800857166193
C           -3.17589426236948       -6.26465669357565       -4.24895984073782
N           -0.28209489852192       -4.42119152576358       -2.85079058379553
C            0.48890688769044       -5.48222923082688       -2.53702068122491
C            1.75694133450321       -0.22907121851859       -3.07242166829063
C            2.50197883183231       -0.19083161629953       -4.39462778656332
C            0.43036277351695       -0.95770820910242       -3.21625450735863
C            4.63961158388393       -0.65110525487184       -1.93153894224184
C            5.43666847784271       -0.59371472380528       -0.64077064390867
C            5.22761913694141       -1.67152071077063       -2.89226357551890
H            0.47586902820797        0.57785074100562        0.98972564374856
H            0.12621771096311       -0.77946093777392       -0.06940427483929
H            0.49268812783162        0.80418831262327       -0.75629909473060
H            2.82913887787677        0.64393083760313        0.10392041460623
H            1.97616448479690       -2.14534534737211        1.05450260752963
H            2.32877592520183       -0.79243726337450        2.12449471042118
H            3.61014131475258       -1.50938035681062        1.14812750546373
H            4.20820467044381       -5.12154362385068       -0.87247525520878
H            5.62622748103972       -7.00569504074396       -0.24636685703925
H            4.85072995952803       -9.32041103456753       -0.60363746277006
H            2.66101207642796       -9.74707186729056       -1.59198153886323
H           -2.50435132721068      -10.70355467491365       -4.40796655565596
H           -3.80720898623214      -13.19796946178086       -3.20379282947296
H           -3.12168354273814      -13.07628189152730       -4.81975409176719
H           -4.55450641716669      -12.14766456297171       -4.39481930947111
H           -3.61748024167169      -11.16218897920947       -1.59280048103152
H           -4.32489361321874      -10.09859980795348       -2.79990988577070
H           -2.73966798874049       -9.72890673112798       -2.11616354552224
H            1.00657747815288      -12.65003430306920       -4.10466262848951
H           -1.41318095328142      -14.43040691324738       -4.69870066660567
H           -0.15290358777944      -14.75493716812350       -3.51389957530619
H            0.22526167191351      -14.76941280706420       -5.23407530891597
H           -1.29205771831420      -12.19802369776659       -6.07833203801673
H            0.37995798524543      -12.51019374049904       -6.52629734828516
H           -0.04726028906485      -11.01999482814457       -5.68032663927335
H            0.08463578158775      -13.36220218249653       -1.50959935865409
H           -1.74368551791508      -11.34990637548716       -0.10244905149765
H           -0.00195493074429      -11.19981900762669       -0.28956983771913
H           -0.67504185283314      -12.47575165578223        0.72669415333673
H           -2.95193312535615      -13.38352102113036       -1.11603412594767
H           -1.82295380444783      -14.53471526273417       -0.42314214209961
H           -2.07517428656420      -14.49126621938840       -2.16778458886084
H           -2.00851301957994       -2.63236381457889       -3.52058041756340
H           -4.19317474103759       -3.01949782637201       -4.52619684215353
H           -5.89771790249026       -4.58589490891756       -5.38925472844915
H           -6.63022348026135       -6.87623312632850       -5.86742115358262
H           -5.16520386188883       -8.78179642117716       -5.32629826629516
H           -2.96351710095524       -8.38265578307767       -4.30457258105044
H            1.58802278581042        0.79886302615170       -2.72199238153891
H            2.70077548395208       -1.20218390093062       -4.75106084263114
H            3.45623645210386        0.33106692804408       -4.31191273954490
H            1.91622095921403        0.31394072692799       -5.16530990351509
H            0.59364354457774       -1.98712990842896       -3.53914064701558
H           -0.21143937284948       -0.47857701459628       -3.95801932103025
H           -0.11888532644736       -1.00018059270818       -2.27583497919801
H            4.63234942750206        0.34488053063147       -2.39645903272588
H            5.43463093853928       -1.56550690835791       -0.14567247446685
H            5.03231844539917        0.14070758600107        0.05713123342109
H            6.47891180509488       -0.32939366037856       -0.82995288575641
H            5.21808800512109       -2.66642567780446       -2.44445747709970
H            6.26312078314015       -1.43430027147732       -3.14375583782934
H            4.66347036589994       -1.73160367306974       -3.82302956422931
