108
 energy: -19.710753475596 gnorm: 0.000528392925 xtb: 6.6.1 (8d0f1dd)
C            0.83128464974935       -0.46490369444998       -0.70423291519225
C            2.28414801336922       -0.36483681200185       -0.26566563238163
C            3.05866334013097        0.54666347798061       -1.19877828420480
Si           2.36971890702995        0.17684803896598        1.56610667340725
C            1.03960421797045        1.33262469800319        1.85347714326155
C            0.34031632940789        2.31260574185622        1.68308226032937
C           -0.32336449842908        3.50301120283257        1.34280288072912
C           -1.55236910339885        3.86432068252836        1.93135239932844
C           -2.18139371425350        3.04586214860259        2.90359204503660
C           -3.36928474014871        3.40406812685192        3.45897923269672
C           -3.99996069832404        4.59815343791967        3.07722138282765
C           -3.42937875475575        5.41088591244524        2.14890829885654
C           -2.19013692311582        5.07606529352344        1.54636072400019
C           -1.58300105878885        5.91159954835936        0.58676506396430
C           -2.17703314385058        7.11495709598982        0.17100597533702
C           -2.56264989671869        8.17168763617821       -0.29044903375257
Si          -2.63161421186846        9.69938708950853       -1.21323662008724
C           -1.11447600881184       10.70314233625361       -0.63420835294230
C           -0.79105065001480       11.91818629335294       -1.48341720968014
C           -1.24701223181902       11.04741226740068        0.83835589975206
C           -2.47423193502668        9.17882215785418       -3.03961475972629
C           -2.84307617100336       10.27237511712551       -4.02511634821114
C           -1.09829776894408        8.59228580219066       -3.30061862036962
C           -4.30725701761130       10.56495857938451       -0.91926062408970
C           -4.83112436828996       10.26071316789463        0.47330388410099
C           -4.27491121841703       12.05469770588546       -1.20562630819976
C           -0.34941541303746        5.56103953089950        0.00687722605283
N            0.20317191679030        6.41571541446092       -0.89281087970752
C            1.33571310138492        5.99787102473140       -1.37754602683268
C            1.94568268153690        4.77024616919233       -1.03204509967788
N            1.46048171821264        3.92804985858611       -0.16709208455009
C            0.28458702245067        4.33192508531680        0.38125240864348
C            3.25485575963143        4.53845647771698       -1.78421712341569
C            4.13617490120246        5.74025088086690       -1.46205079175433
C            5.39529306861753        5.71706592367916       -0.89357236615413
C            6.05519841118249        6.90810844806664       -0.66327114248632
C            5.46383206538171        8.11357988913809       -0.99619260983839
C            4.20440077836716        8.14392560316939       -1.56248439743521
C            3.53799026700027        6.95629026265386       -1.79618746341021
C            2.14764108333925        6.78733061196230       -2.40281091984155
C            2.31139916807027        5.85844550793162       -3.60187917839970
C            1.92762987272133        6.10761740044955       -4.90563755239125
C            2.14258899256591        5.14297813755930       -5.87039562697427
C            2.73484811210824        3.93770579015507       -5.53825659748999
C            3.11978071818299        3.68107854044068       -4.23693985537556
C            2.90871345602918        4.64197558234839       -3.26675681756819
C            2.20476957447456       -1.34834139359935        2.69578563422721
C            2.20619336779742       -0.92435591229542        4.15412710800014
C            0.97757911270539       -2.17257629683185        2.35149145626802
C            3.99583366782346        1.06689397744833        2.01995113252832
C            5.21637463871590        0.19015193419000        1.80903427357667
C            4.12563761657024        2.42788898067702        1.35501536760591
H            0.74272104201977       -0.89836560852456       -1.70231734100816
H            0.37604795532123        0.52637549325800       -0.73630299872056
H            0.23501045137890       -1.06983227531092       -0.02111283937937
H            2.74397359028730       -1.36331718806989       -0.25133635719768
H            2.66491133096341        1.56215769274904       -1.14423895544078
H            2.97104548863379        0.21895975120812       -2.23639108705930
H            4.12046553503121        0.57870403906556       -0.95534384072644
H           -1.70006989538452        2.12937698671220        3.19820231046092
H           -3.83253903301185        2.76987006675220        4.19717000184561
H           -4.94207719055248        4.86925828898659        3.52517827798865
H           -3.91530401333883        6.32646119217078        1.85908768715244
H           -0.31545672552572        9.95597928882009       -0.75574567235285
H           -1.59733521221901       12.64987798929505       -1.44527765819448
H           -0.63220292196518       11.65276558177255       -2.52869060737654
H            0.11446202936004       12.41582003250308       -1.13100917934288
H           -2.02770280954042       11.79218658706831        0.99467575812712
H           -0.31831633698029       11.45923229153610        1.23827677670392
H           -1.50647454986893       10.16813313823315        1.43127309502592
H           -3.22486780292785        8.37604759196406       -3.09644159825643
H           -2.16210137836616       11.11915710255385       -3.94702546088472
H           -3.85416065334716       10.64496319560735       -3.85364947005668
H           -2.79442856383945        9.91083036638606       -5.05404795818200
H           -0.32873023173710        9.36192178368166       -3.23345418935134
H           -1.03301492003550        8.14868460559581       -4.29595763006508
H           -0.85304676413697        7.81738393734123       -2.57182526443154
H           -4.94428801102207       10.06368703160702       -1.66310247842234
H           -4.18917237195161       10.70563536569682        1.23424217182322
H           -4.86504133262098        9.18604773042222        0.66246790388640
H           -5.83734126207463       10.65880584995510        0.61804724439646
H           -3.68190987294565       12.58022424495222       -0.45697857526767
H           -5.27758630296043       12.48603945575973       -1.18302138960532
H           -3.84145501342720       12.27031392006855       -2.18308941484493
H            3.72766454337248        3.58458155323363       -1.52496083409343
H            5.84598095071958        4.77435992786698       -0.63531627876132
H            7.03764818182460        6.89754768876673       -0.21997117513630
H            5.98888208754630        9.03662534283664       -0.81143518725677
H            3.73542173694843        9.07745623741765       -1.82143518382826
H            1.67803690739911        7.74396922893594       -2.66182837476922
H            1.46457892309630        7.04685314174776       -5.15433116530046
H            1.84496514950880        5.33076887371385       -6.88921418176775
H            2.89634441087490        3.19226987971189       -6.29989792466143
H            3.57810108954273        2.74485415701445       -3.96873071727326
H            3.11079314453358       -1.93109251847245        2.47721235246473
H            1.36177966368009       -0.26531672984427        4.36181469679648
H            3.11725052210449       -0.38683989007053        4.42142371937887
H            2.12309030649284       -1.78584631630966        4.81961280656404
H            0.07365909171640       -1.56645388521177        2.43010224238117
H            0.86493387631568       -3.02032548906686        3.03020537437686
H            1.02897140950395       -2.57037019259576        1.33674329054008
H            3.84410338776878        1.22329295512161        3.09802497155242
H            5.35893796057260       -0.03528309771005        0.75231908673967
H            5.12541387413352       -0.76138150143532        2.33537122196452
H            6.12424700494582        0.68120043042076        2.16455758625460
H            3.19115421343361        2.98960828315454        1.40497598622853
H            4.39212654437005        2.32770906864747        0.30442960815866
H            4.90508375719680        3.03116683943188        1.82449959402111
