106
 energy: -19.476567187058 gnorm: 0.000574228224 xtb: 6.6.1 (8d0f1dd)
C            0.76079078186430       -0.35510746613235        0.67756704091308
C            2.26819945141106       -0.52155266545857        0.60456339185218
C            2.93025671146314       -0.08906597422356        1.90237668291859
Si           2.79541205360466       -2.30262718293274        0.15740365333275
C            2.87555173338505       -3.28168095684181        1.64728543983398
C            2.79629614318246       -3.95955898835939        2.65320341813804
C            2.64352146498186       -4.73707789651862        3.81334723816411
C            3.42755081969477       -5.89357957242902        4.02261594424796
C            4.40763207124406       -6.30702335254185        3.08644660146514
C            5.13972991141403       -7.43504581037065        3.28818197744558
C            4.93550749582608       -8.21730786909024        4.43385181435854
C            4.00466588402764       -7.85502757380692        5.35670121263937
C            3.22349893698449       -6.68549063065373        5.18641273944095
C            2.24836921323920       -6.30027661417016        6.13163051207660
C            1.96624499913757       -7.07855468325685        7.26778827990642
C            1.55794456566820       -7.70945926055833        8.22384534104653
Si           0.50216342980636       -8.45390341297079        9.45876226260594
C           -1.27356026548980       -8.26399418057118        8.77940241221010
C           -2.33889703698264       -9.00444129101281        9.56626325668014
C           -1.61864866814431       -6.79823802440048        8.58087735023676
C            1.01831418910806      -10.28407297056964        9.58120161637288
C            0.55779896283296      -10.96521791712183       10.85706686835571
C            0.59726995157284      -11.03801798101826        8.33280042893294
C            0.78003367711359       -7.58332548235010       11.13484149771450
C            1.14546019047646       -6.12553567679770       10.92623351025268
C           -0.37844444283886       -7.74222087768493       12.10189741745998
C            1.48609202670994       -5.13891463938084        5.92835158272286
N            0.58307357458969       -4.78009969753946        6.87096117053285
C           -0.16824011720580       -3.73338522908162        6.60709571354129
C           -1.09822135234183       -3.35657986178141        7.69187424722106
C           -0.65537613135862       -3.48492578671870        9.00761768691625
C           -1.50634105500332       -3.30717624447394       10.07321659268078
C           -2.83591789996299       -3.00865109942092        9.84963109605767
C           -3.29843789171150       -2.87074780052366        8.56095224116646
C           -2.44732605570787       -3.02595650835495        7.47531585873379
C           -2.98059493560689       -2.79913545358637        6.11468230268167
O           -4.00097508964599       -3.34000838791067        5.73357785628513
C           -2.28161122821994       -1.79066303270499        5.28553904358264
C           -3.02865905473314       -0.73951929238618        4.77092452816076
C           -2.43551923049753        0.26687772637161        4.04438654018446
C           -1.07506106297646        0.23340777608110        3.81312879594598
C           -0.32425024635155       -0.81342148512234        4.29392996675782
C           -0.89572011670517       -1.84433753570376        5.03845439386527
C           -0.03893114031921       -2.99557578562201        5.38587936668495
N            0.89529396368900       -3.27834185872130        4.50222299770494
C            1.66988014771771       -4.36169383804722        4.75262413775546
C            1.49268929664660       -3.07091319645060       -1.01125192711205
C            2.06949239752822       -4.11435084441769       -1.95141533934913
C            0.33473404997088       -3.64033151904364       -0.20709301549835
C            4.49958662049900       -2.27928109766638       -0.70739801589894
C            5.39606488638306       -1.14743931981951       -0.23875109739624
C            5.18746064707927       -3.62484960464019       -0.54760046543508
H            0.48598476273523        0.68037807268126        0.88621187884161
H            0.34632349444027       -0.96872857591914        1.47776643348266
H            0.27139339352650       -0.64242283044601       -0.25372504969949
H            2.65778824894568        0.07206750577207       -0.23432722146136
H            2.60912580984619       -0.72888500150339        2.72487537664445
H            2.66832304290416        0.93835873348132        2.16176029155599
H            4.01700977218043       -0.15309629581478        1.85168764096324
H            4.56276351113377       -5.71243545702127        2.20311684948245
H            5.87995566322665       -7.73424664056808        2.56419994299940
H            5.52003096128041       -9.11100422800188        4.57949400794392
H            3.84842907880513       -8.45839753071162        6.23406245756821
H           -1.16184649562640       -8.73875627634081        7.79307229469086
H           -2.46480783848403       -8.57440990455210       10.55891310672581
H           -2.09264690618219      -10.05886362968512        9.69089024491444
H           -3.30788897939326       -8.94932582769297        9.06684725565696
H           -1.74573573411616       -6.29554615730227        9.53956565548991
H           -2.54873888951367       -6.67505495345617        8.02303917588642
H           -0.83289012153546       -6.27389144229350        8.03475988714744
H            2.11492795657968      -10.19403285605265        9.59724787690535
H           -0.52971246742646      -11.00528926872041       10.91000380435864
H            0.91311466812621      -10.44092875038894       11.74541017284004
H            0.92394646010275      -11.99202549571535       10.91193742321612
H           -0.48735159397751      -11.14028275873398        8.28790786967147
H            1.02148428219873      -12.04362153532334        8.31040144463617
H            0.91587349786529      -10.51827890287710        7.42714454546556
H            1.65661025120759       -8.12554505581171       11.51885099684218
H            0.29553558833567       -5.57688936710592       10.52292971120965
H            1.97222106528617       -6.01354046596619       10.22261677468450
H            1.43224288097860       -5.64479662759354       11.86334508601959
H           -1.23834918260443       -7.15886842043485       11.77222420047039
H           -0.11466933513703       -7.38853310398648       13.10035185204104
H           -0.69518061557045       -8.78209874881469       12.18919433498930
H            0.37708376411426       -3.74132428306477        9.17163364250770
H           -1.13918235784302       -3.41190518717272       11.08110568953477
H           -3.50821098799590       -2.87889795911520       10.68188799016344
H           -4.33177585985531       -2.63352922037350        8.37336930251488
H           -4.08898761940506       -0.72508623345687        4.95802622063706
H           -3.02991635262778        1.07918732230891        3.65920618856972
H           -0.60444583413100        1.02179163490661        3.24885209312989
H            0.73071771037281       -0.86186855559297        4.08875013576912
H            1.15502960808542       -2.20453447672259       -1.59719763983180
H            2.43745551461374       -4.97410707335043       -1.39062407342927
H            2.89593256871086       -3.71988641593611       -2.54378284345554
H            1.31274706994332       -4.48226080409118       -2.64677416519003
H            0.66408603180972       -4.49789764449058        0.38123122060218
H           -0.47509433009336       -3.97873320117687       -0.85595497094941
H           -0.07823405428849       -2.91282115789859        0.49141652148340
H            4.23286921711405       -2.11505753836756       -1.76086911129151
H            5.64970895268176       -1.27078431512034        0.81464486296839
H            4.92081950809466       -0.17316208966214       -0.35969884720822
H            6.33396535722750       -1.12776126552976       -0.79690055516177
H            5.45277862551978       -3.79508691277761        0.49677381975209
H            6.10769695736233       -3.67617621029908       -1.13251883883849
H            4.54745304408033       -4.45123868593954       -0.85685713151308
