128
 energy: -24.109578998144 gnorm: 0.000684984133 xtb: 6.6.1 (8d0f1dd)
C            1.37641639974659       -3.13374431862909        0.57734374513474
C            2.80981597603728       -2.67367406224852        0.37265651298192
C            2.91512521507618       -1.16586600452739        0.52180477609342
Si           3.97556486274767       -3.62091478529419        1.55363274084395
C            3.14185131169793       -3.68629461893476        3.13811462965498
C            2.69566354246340       -3.12890253734456        4.16453830855869
C            2.65568240097230       -1.82072808429994        4.73243752435926
C            3.71126343563169       -1.40807504385640        5.59266992150024
N            4.65830279724479       -2.31616721518255        5.90109815800634
C            5.67280972609640       -1.81477822004171        6.58078237376390
C            5.76962933078567       -0.48000067741808        6.96639737358244
N            4.84458312933901        0.42964664540810        6.71790854899065
C            3.79750132064130       -0.04507895666006        6.00711145381716
C            2.80533007819959        0.86616905639330        5.58969586737356
C            2.90244647841600        2.21052819189315        5.96360731728468
C            2.97723340804760        3.40481153342298        6.17947051677007
Si           2.99100353355580        5.18438482896564        6.04265088536615
C            1.22966742606208        5.66220374233965        5.48361796177110
C            0.94485450240041        7.15236082075551        5.48141449984631
C            0.90690715925941        5.00940218227922        4.15105541535250
C            3.41201897538299        5.87893223227271        7.76557575540802
C            3.87464665701362        7.32389245784193        7.74176869498245
C            2.25648072677143        5.65094758355180        8.72246386500508
C            4.35321466679191        5.66115686270304        4.79195424851727
C            4.54993783624976        4.56255267422617        3.76087111767569
C            4.13421577454266        7.01624582155033        4.14651530405246
C            1.76760242033259        0.47717712802300        4.71573839435671
N            0.91279455147634        1.42871012148492        4.27969439119646
C            0.02896494859804        0.98236616783650        3.40651514408288
C           -0.03281926208491       -0.33629358278430        2.96249210710878
N            0.78136469325443       -1.29290551748709        3.37076929581583
C            1.69434531787296       -0.87812459529400        4.27166712693288
C           -1.12253644043648       -0.55973768207823        1.91603375058058
C           -0.82033465485622        0.42761979741426        0.79166675153544
C           -0.61257687647507        0.13476305618334       -0.54249359431038
C           -0.32862012641021        1.15839920384313       -1.42472580534922
C           -0.25427691518122        2.46648299068043       -0.98143543314098
C           -0.46596175544765        2.76806573004832        0.34945856750576
C           -0.75162867450339        1.74897075603199        1.23746164324834
C           -1.00567941857984        1.88150546593259        2.73635979868654
C           -2.36026684691683        1.23221766937110        3.00288490249256
C           -3.45536260329607        1.81284033666792        3.61319903912309
C           -4.60966118928188        1.07295369583451        3.77850324813860
C           -4.67212617414983       -0.23724663213738        3.33947449059104
C           -3.58108882335259       -0.82414006738634        2.72931007592025
C           -2.42320173705425       -0.08970868155379        2.55986797799789
C            7.10999211605431       -0.15039463407458        7.61797084740971
C            8.16657480526919       -0.55710741817411        6.59188251123425
C            9.12871250663774        0.25364712032977        6.02110004763748
C            9.98396369251433       -0.27407129604925        5.07362231814282
C            9.88016799201181       -1.60028035084866        4.69449414676214
C            8.92058000209741       -2.41679602333055        5.25930540107885
C            8.06406570683435       -1.89659011631951        6.21031948840160
C            6.92212340358539       -2.62438431279275        6.91284561230364
C            7.15459145845380       -2.45165191355877        8.41070420388047
C            7.26415198230510       -3.45295572364944        9.35637561926073
C            7.47564123559677       -3.11550558375387       10.67869479523898
C            7.57672876669491       -1.78889052888389       11.05673970647375
C            7.46761446687026       -0.78277389327682       10.11710889180997
C            7.25667727556702       -1.11305596214177        8.79217822181694
C            4.34583328188123       -5.37089083582416        0.88293384581201
C            4.70594607316892       -6.29708395434297        2.03194662177518
C            3.22738269599954       -5.95016455743241        0.03661574097008
C            5.61427303508265       -2.64916987834600        1.74212509561154
C            5.48181322885690       -1.52250340079961        2.75355681410395
C            6.79688420112827       -3.53674493888563        2.08785876869405
H            0.70274201724070       -2.67655180361808       -0.14868801990483
H            1.02884875150514       -2.85384375029501        1.57264985843554
H            1.27288818346454       -4.21473202373853        0.49198072864169
H            3.16644827765336       -2.97100232668324       -0.62340511327843
H            2.60225828573206       -0.85875217455570        1.52052982598522
H            2.26765371274539       -0.65029815967213       -0.18972675898680
H            3.93294470368784       -0.80885253725177        0.36028867091532
H            0.62804912997890        5.18275653460816        6.27031656538694
H            1.55657667518946        7.66860340664609        4.74276786043669
H            1.14503130381860        7.60519320686883        6.45249811450551
H           -0.09872219581602        7.35449604544879        5.23342779405422
H            1.48903567071829        5.45836102721211        3.34625314569893
H           -0.14759450822915        5.12627794008129        3.89480961529646
H            1.13346763886027        3.94158895133814        4.16533971369008
H            4.25566590916204        5.23476237465990        8.05541580527968
H            3.08266384067703        7.98375823746232        7.38930181866642
H            4.73528368865286        7.46133260792167        7.08549862186072
H            4.16159481388572        7.66391685810608        8.73852077459932
H            1.40099249719371        6.27082862949440        8.45267383991748
H            2.53116376641794        5.90063013088632        9.74909300362828
H            1.92618887500912        4.61058262235122        8.70611874255292
H            5.23832849217502        5.70616699226728        5.44353973785175
H            3.66061881939028        4.44909286979396        3.14044438185135
H            4.74229045946544        3.59778848639739        4.23373636450577
H            5.38845072770781        4.78228141949607        3.09746325817905
H            3.29146145191957        6.98387432280349        3.45602827531645
H            5.00828620908584        7.32959988248341        3.57245127318899
H            3.92809973878290        7.78934770133636        4.88776907622926
H           -1.16789833813701       -1.60105495971212        1.57420737233497
H           -0.67852380551324       -0.88409559718641       -0.88175728272990
H           -0.16388320116915        0.93563333230911       -2.46633337855831
H           -0.03107961831171        3.25672318839932       -1.67950600892726
H           -0.40991713145180        3.78271084910398        0.70405943411963
H           -0.95267339775134        2.91781093967792        3.09063152933121
H           -3.39712046295522        2.83164478460927        3.95516212143893
H           -5.46763627252900        1.51882803523315        4.25460464475806
H           -5.57800117011887       -0.80515018172182        3.47567908889439
H           -3.62000505722027       -1.84374876246162        2.38706699136022
H            7.18062353759161        0.90384828426490        7.91364705238439
H            9.19648235505604        1.28689705256743        6.31446453314479
H           10.73567394171064        0.35385703977650        4.62390861073453
H           10.55097250729126       -1.99939940752602        3.95124881428860
H            8.82723119591392       -3.44801800001545        4.96579720855933
H            6.82964420703515       -3.67474146130395        6.60911848236852
H            7.18150100069822       -4.48238277737447        9.05359972202073
H            7.56105473036698       -3.89195928667800       11.42131444829855
H            7.74031066781691       -1.53774666092602       12.09200895083109
H            7.54252479902928        0.25234094349063       10.40209389120507
H            5.22526707710910       -5.20055058517865        0.24605099509929
H            3.84169294005941       -6.45485438710198        2.67873653339251
H            5.50219636141645       -5.88681734159145        2.65343144419836
H            5.03084555318837       -7.27496534347824        1.67170756698429
H            2.33743779066290       -6.12234855389135        0.64270657611752
H            3.51379812595343       -6.91102891118262       -0.39504985870761
H            2.95436565920784       -5.28759509325697       -0.78587652579173
H            5.75223247891219       -2.23311841709930        0.73398956040381
H            5.39198808621687       -1.93129727933132        3.75955210622572
H            4.60058896203857       -0.90669589624433        2.57630568006445
H            6.35631604355208       -0.86940518562306        2.74720760764484
H            6.66076039667169       -3.98704902509044        3.07180977986479
H            7.72525207520082       -2.96343393277460        2.12175368072096
H            6.93250599710320       -4.34161215425457        1.36474356484218
