112
 energy: -20.804349053103 gnorm: 0.000603774788 xtb: 6.6.1 (8d0f1dd)
C            4.76228507604727        1.77226658595467       -0.22250263275239
C            5.03031477465068        2.06195169649846        1.24326486168427
C            3.98467664471160        3.00754667840203        1.81316830119899
Si           5.13796287191985        0.48037906771361        2.31060118883977
C            3.48846443804651        0.05001694908671        2.83079672910279
C            2.33422356397867       -0.31101126946658        2.94778929710874
C            1.01630407797437       -0.76495026616302        3.07464162682380
C           -0.01282900809835        0.16272824335265        3.31456513774602
N            0.31435977726335        1.47231480965610        3.43437953564466
C           -0.71448953366473        2.24402942455035        3.64040501065184
C           -2.04767835454007        1.78670696443296        3.73175090712105
N           -2.40401715449453        0.53828867266872        3.62923333832118
C           -1.36289419678744       -0.30242760390298        3.41182621018827
C           -1.63120116759672       -1.67692328302005        3.26782408309005
C           -2.96677750458775       -2.09284113678935        3.35146718257037
C           -4.16829766276849       -2.26366684879078        3.42606941086986
Si          -5.89983842399694       -1.83765593049847        3.53608872258072
C           -6.23592940585339       -0.70421627861155        2.03602328681312
C           -7.69998312097438       -0.38777857441041        1.79399878972850
C           -5.38240804418438        0.54942737532520        2.11439251871194
C           -6.89087662659038       -3.46150880954549        3.44538415589846
C           -8.32374926106505       -3.32498665764995        3.92685301036171
C           -6.79532174922828       -4.05997326762577        2.05377098265905
C           -6.18436499344197       -0.98228717608620        5.22053932728840
C           -4.92644048157126       -0.26730772598449        5.68517345690156
C           -7.39643421201691       -0.07004254219782        5.23728161418874
C           -0.59918436143514       -2.61053875513633        3.02612986965624
N           -0.91795012093779       -3.90426963274211        2.89024446499804
C            0.10989676798278       -4.72340851066391        2.65088333140956
C           -0.13547753148689       -6.10736403111947        2.49609895780048
C            0.87683961065571       -6.98281819302048        2.24658529695343
C            2.19496345921939       -6.52446876524656        2.13857645690306
C            2.47391456519403       -5.19985362155942        2.28249711265275
C            1.45205708519467       -4.25737872489977        2.54180731549249
N            1.77617017537540       -2.96914830521670        2.67559045892472
C            0.75034291461259       -2.14379108778138        2.92311401681228
C           -3.04081038575225        2.92385830402259        3.96232190478274
C           -2.82399744384193        3.90393928867678        2.81360891886796
C           -3.76929711688745        4.34009628218853        1.90522954458795
C           -3.39713685936060        5.22745489788673        0.91470476516652
C           -2.09153384130351        5.67623867026547        0.82912925982114
C           -1.14089112980995        5.24310106353036        1.73242596885274
C           -1.50608970152336        4.35608976439483        2.72680766892324
C           -0.60207829362898        3.75821347780029        3.80114894980763
C           -1.25460876578162        4.08457640241493        5.14200712085661
C           -0.67570816090416        4.74175865756230        6.21062158732475
C           -1.41315048623348        4.94571375936926        7.36040362132187
C           -2.71857469329190        4.49649086422104        7.44609592091671
C           -3.30384601133058        3.83808456526735        6.38269749543313
C           -2.57258786256550        3.63274817768772        5.22859739402055
C            5.81520423044282       -0.97388759901308        1.27048227568530
C            6.54100535953048       -2.01388196970711        2.10485310254677
C            4.69464527776431       -1.61101396499556        0.46364394974920
C            6.26017691298198        0.78250499507806        3.82720266612937
C            6.24727811446671        2.22380967170604        4.30368953466715
C            5.88756193200527       -0.17015883414189        4.95077254533820
H            4.77430032852535        2.68834576797165       -0.81613403913850
H            3.77891072326388        1.31812323213354       -0.34929676718307
H            5.50350921811177        1.09427625966278       -0.64750926427928
H            6.03342590999730        2.49834187935860        1.34935825603952
H            2.98890527760289        2.56820628921576        1.73446532690471
H            3.96806761955816        3.95722486453726        1.27515018648507
H            4.15782993165849        3.22349607999361        2.86743093004341
H           -5.86461710668603       -1.33735632275677        1.21620093064403
H           -8.11697288212757        0.19469226460583        2.61465429691053
H           -8.29968205924802       -1.29214518413477        1.69086053689840
H           -7.83122901334833        0.19910554731274        0.88297413474847
H           -5.73252341482642        1.20653896506148        2.91008877775470
H           -5.41787373138997        1.11847555408574        1.18349765139094
H           -4.33766696013524        0.30994711244757        2.31972744776888
H           -6.33169256428738       -4.09372339003900        4.15151239335239
H           -8.88989935304467       -2.64763139230558        3.28823008736655
H           -8.37167909553799       -2.93543909402364        4.94493473582275
H           -8.83844474298854       -4.28754190743241        3.91685226372306
H           -7.33102048292658       -3.44606688863029        1.32897249132346
H           -7.22800113571044       -5.06162499993424        2.01806608648448
H           -5.75766888194756       -4.12984751056167        1.72123550614313
H           -6.36969398618415       -1.84687727288062        5.87493682044085
H           -4.67120826516529        0.54531024244044        5.00613731488366
H           -4.06821509175155       -0.94060933815797        5.71760968071198
H           -5.05279948817816        0.16229990820631        6.68055052310837
H           -7.22068158795589        0.81888537100259        4.63147754058305
H           -7.62353884803146        0.27076867974824        6.24922390138747
H           -8.28433349210969       -0.56905869565272        4.84698728828009
H           -1.15081512263324       -6.45343197074847        2.58011961707413
H            0.66581953505014       -8.03327337160763        2.13039145863814
H            2.98930416688193       -7.22567946884049        1.94140757907098
H            3.48538611815204       -4.84170049050221        2.20194368773214
H           -4.07694885623410        2.57257237002179        4.03024258544528
H           -4.78204763834350        3.98305686176840        1.97750833841979
H           -4.12938306335173        5.57136287492703        0.20252601461147
H           -1.81284207527095        6.36780115020209        0.05083099669539
H           -0.12166366780305        5.58321864879480        1.67069595480471
H            0.43588552539833        4.10705661524905        3.73209769714186
H            0.34201644006404        5.08385901551549        6.13685899977017
H           -0.96672726036308        5.45705091496531        8.19757335525534
H           -3.28301634175304        4.65968963040949        8.34965440502852
H           -4.31767299447150        3.48145095246636        6.44114116396395
H            6.53263793998571       -0.48145434039849        0.59921957425716
H            5.85033110920150       -2.50080318880540        2.79421976597332
H            7.35043288511800       -1.57659214009253        2.69068598542116
H            6.97359290959679       -2.79466888993013        1.47639895717811
H            3.96756277658145       -2.08327208340111        1.12622729177067
H            5.07438852016339       -2.38234982212293       -0.20891417219217
H            4.15459378267008       -0.87955922731105       -0.13737691478225
H            7.25993413203706        0.53856006803148        3.44111528690886
H            5.25685931555878        2.49787018935350        4.66858260344752
H            6.51769445281415        2.91971389001601        3.50847157175820
H            6.94841158184955        2.37538398753199        5.12658598185237
H            4.88702180576447        0.05391932996717        5.32370450681221
H            6.57868379845635       -0.08728905366620        5.79174227995740
H            5.88316943390564       -1.20959441312731        4.62241286112941
