68
 energy: -15.424741642877 gnorm: 0.000532600688 xtb: 6.6.1 (8d0f1dd)
C            0.82521258404514        0.17800591220330        0.56391601024420
C           -0.39035536633879        0.12718994791075        0.45466724132684
C           -1.79222919590184        0.07269496775577        0.31463552785731
C           -2.45922222628484       -1.16836741209786        0.31243768209750
C           -3.82094565660989       -1.25572899537491        0.16720740609475
C           -4.55533404968925       -0.08106809515953        0.01782698959595
C           -3.90695563517670        1.16491078312957        0.02489550996928
C           -2.52437039454473        1.24047321618930        0.17219459597138
C           -4.92360281847983        2.17836992467522       -0.14139346204361
C           -4.85751391295486        3.56675730860807       -0.22632723630381
C           -6.02323195697442        4.29161107526572       -0.41551328714282
C           -5.97972012629593        5.69768765468559       -0.51022759918350
C           -5.94072543083706        6.91544303008641       -0.59779676198170
C           -5.89528626169623        8.32251084881997       -0.70314804667189
C           -7.00793962435791        9.04081050532566       -1.12923244108800
C           -6.96212334789775       10.41520523972348       -1.23218940019378
C           -5.80425686288774       11.09436581882689       -0.91179679340224
C           -4.69117188981755       10.39645346769732       -0.48933848945394
C           -4.73502504837170        9.02195345596274       -0.38679125019737
C           -7.25222264225211        3.61147968898338       -0.52435121528205
C           -7.33017018502027        2.24424522712734       -0.44069309741959
C           -6.15837238104013        1.51659429558675       -0.24171368446238
N           -5.94225244837089        0.12651147571943       -0.13142433485093
C           -6.94382793546568       -0.90237440602430       -0.19810352931054
C           -6.88927872106418       -1.83864584549419       -1.18524908993060
C           -7.86808120019478       -2.86020539929621       -1.30883450485115
C           -7.78965002506005       -3.80888535041433       -2.34424459880169
C           -8.73298817522903       -4.78974292908742       -2.46606631921264
C           -9.78665621496183       -4.85872318996855       -1.56087829296988
C           -9.88740159009725       -3.94721877919948       -0.54348866054418
C           -8.93783291991572       -2.92452084686595       -0.38617267470174
C           -9.00641963890225       -1.94329465218727        0.68371153704782
C          -10.02608624607566       -1.94650978403644        1.65048036594622
C          -10.04901302361610       -1.02323098628182        2.66184909947088
C           -9.05271129104692       -0.05959085539512        2.75444675484575
C           -8.04875170913697       -0.02662298280129        1.82680599170370
C           -8.00697748492844       -0.94966492091899        0.77361586148120
C            2.23102182530340        0.23869988745847        0.67805137711479
C            2.89422006433028        1.46163681537197        0.67476131567015
C            4.26809841839605        1.51811028085358        0.78041877826295
C            5.00175053016630        0.35451644885039        0.89116997101118
C            4.35898254764613       -0.86665859728755        0.89669357721449
C            2.98519825917851       -0.92479751706459        0.79121234436446
H           -1.87333280965991       -2.06420183420342        0.42727768947323
H           -4.32747049249979       -2.20428529601770        0.17021318916117
H           -2.03135510485870        2.19525200521792        0.17409847118265
H           -3.91078704243841        4.06938199202582       -0.15047720153106
H           -7.90858033407618        8.50642726174968       -1.37948294624842
H           -7.83160493988811       10.95920860598558       -1.56331078136890
H           -5.76939631461762       12.16866397025707       -0.99164040943595
H           -3.78654701536084       10.92590866447223       -0.23852735246880
H           -3.86915148511875        8.47323216030634       -0.05737179585447
H           -8.14621473552874        4.19154250050125       -0.67681968187313
H           -8.26942012986815        1.72768764031288       -0.52687797632706
H           -6.08910938036119       -1.79021737816480       -1.90057710110186
H           -6.97315367930475       -3.75149986141796       -3.04344980150001
H           -8.66259131803977       -5.51135123055460       -3.26358460900903
H          -10.52684735158231       -5.63565662016265       -1.66249630189878
H          -10.70975687793849       -4.02163029536626        0.14438498885336
H          -10.80416106881293       -2.68620379111675        1.60188436859082
H          -10.84035960943027       -1.04512908395163        3.39339101780539
H           -9.07216932999596        0.66000248171145        3.55654255466908
H           -7.26957760780316        0.71118813227103        1.89777967054256
H            2.31778273066501        2.36686189806704        0.58691853904402
H            4.76937955926249        2.47224246237657        0.77570739418785
H            6.07558416064940        0.39931895460336        0.97266171302368
H            4.93103154286874       -1.77603731004849        0.98284636237021
H            2.47914804211271       -1.87523176081932        0.79425683241297
