110
 energy: -20.568355178781 gnorm: 0.000778985489 xtb: 6.6.1 (8d0f1dd)
C            1.96464041772259       -0.74646376090031       -0.78178957380672
C            3.36494150207172       -0.15519136818277       -0.76273663191413
C            4.32476191944279       -1.00329662612724       -1.57831754275340
Si           3.31823895875903        1.66956887074935       -1.32764243604812
C            2.11141277460781        1.83200116098914       -2.63074342366724
C            1.48610244805918        1.98228459237169       -3.66180513306953
C            0.86678018735225        2.20646495303669       -4.89762549980583
C           -0.04476545295932        1.26006262844754       -5.42318134083069
N           -0.31587414588402        0.16490179243613       -4.70409438264428
C           -1.16402760408591       -0.69591584020187       -5.27460546997881
C           -1.50361254893609       -1.88284370431630       -4.58624579998670
C           -2.35856307394135       -2.79454530081065       -5.12604254414609
C           -2.92371933505686       -2.57042166009592       -6.38611233991660
C           -2.62198311965714       -1.43937849469016       -7.08129568495749
C           -1.73879323521129       -0.46795076051501       -6.55774556119164
N           -1.47319897296999        0.62483816495880       -7.28003955211102
C           -0.62691644173036        1.49123588547490       -6.71251006623590
C           -0.28481348046156        2.66843883836301       -7.41688799803763
C           -0.77436344835159        2.93433634026421       -8.70394171507839
C           -0.99912709865022        3.32713567359053       -9.83277683722075
Si          -0.82083105589489        4.27606774890786      -11.33723435137949
C           -1.10831692892166        3.08913133702658      -12.80226828321126
C           -1.24659137999349        3.77289274918965      -14.14982271815746
C           -0.04624573374747        2.00474058508676      -12.81103044374524
C           -2.14810871455655        5.63999469809190      -11.24373080123830
C           -1.88303012741130        6.82009074980032      -12.16061130099656
C           -3.53147063322003        5.04683776086716      -11.43873453219456
C            0.91076090846319        5.08726526930662      -11.33259186153156
C            1.93825353543610        4.23190861705096      -10.61042855882317
C            1.39419148125756        5.51350731820010      -12.70569680690663
C            0.61065100230710        3.60364716852401       -6.87639721556473
N            0.89216260310804        4.71825784413077       -7.58489382371042
C            1.80448662974282        5.52548947136480       -7.08730299676922
C            2.04578715670454        6.73839787738671       -7.89398844035291
C            0.95675308966966        7.31458219719430       -8.54802632307324
C            1.11811128989153        8.34949556141551       -9.43882593488212
C            2.38361094524178        8.82663510968770       -9.71731637451665
C            3.47573298987935        8.27448583047583       -9.08859852594965
C            3.32836005006535        7.24448147472302       -8.16967636630741
C            4.53444534016954        6.71968606720858       -7.49354671711236
O            5.52154459093149        6.39109678346435       -8.12375838805342
C            4.52855445952194        6.72238353750719       -6.01305272983257
C            5.56531249270671        7.37142308636043       -5.35623774615003
C            5.59478938495308        7.45575492650252       -3.98351002249619
C            4.58314071762269        6.88231934461999       -3.23957475791277
C            3.56161423162011        6.21457841386737       -3.87302258492164
C            3.50224229482700        6.11649774138055       -5.26270689124415
C            2.45837460306973        5.25033418022911       -5.84334098217590
N            2.13368272843371        4.20826905901710       -5.10439956688927
C            1.20986368280892        3.36287415474932       -5.61396700876533
C            2.84492053660298        2.80203597929532        0.13638746533225
C            2.28919879645104        4.12026237109784       -0.37630302649605
C            1.88072707504657        2.14061372856838        1.10433335098259
C            5.02754319457002        2.17055375505242       -2.02623718775670
C            5.11058936031947        1.80993989402030       -3.50079893411055
C            5.37390189238083        3.63103257811933       -1.80542545211470
H            1.95232803556977       -1.75880351801784       -0.37410875151963
H            1.58738414996408       -0.79966428162657       -1.80408550551593
H            1.25797615992699       -0.14620309498830       -0.20917348212112
H            3.73093147758518       -0.08334341885231        0.27106164709865
H            3.99961687227351       -1.05684666149456       -2.61771916989414
H            4.36860365981008       -2.02633365343185       -1.20041665752984
H            5.33925546843501       -0.60374174043057       -1.56467102101190
H           -1.06449804886564       -2.04904935170807       -3.61812317315996
H           -2.60243923531064       -3.69321510655805       -4.58356624044674
H           -3.59986635863308       -3.29749679616196       -6.80511050106280
H           -3.05213170341565       -1.26076315275424       -8.05120383033793
H           -2.07481523259157        2.64372791085214      -12.52312866705896
H           -0.31717836509039        4.26161306882512      -14.43907107208967
H           -2.03036784030134        4.53021803684280      -14.14236046793652
H           -1.49135265363735        3.05444966993744      -14.93415233599311
H            0.92451903338106        2.41450365931282      -13.09024535016246
H           -0.28534057931634        1.21632797481492      -13.52716483856620
H            0.06110192988466        1.54424382860840      -11.82712302441771
H           -2.03902122394211        5.96666028125680      -10.19852147519031
H           -1.90817434702724        6.51806187874426      -13.20708934615697
H           -0.90710049130927        7.26837719134576      -11.96958355276880
H           -2.63505305418217        7.60003287619307      -12.02901317424436
H           -3.66728634323770        4.70463393705860      -12.46489413535487
H           -4.31367817747338        5.77942540898001      -11.23155693464164
H           -3.69234087159494        4.18915767373570      -10.78288335785236
H            0.70875877560367        5.98281111887870      -10.72889585099946
H            2.13591983440025        3.31264826881694      -11.16160713727885
H            1.59683560829251        3.95000395289134       -9.61397383093253
H            2.88693232269864        4.75960138194503      -10.49584854670157
H            1.64801970595884        4.64521628746713      -13.31340508925729
H            2.29133220991831        6.13130687110486      -12.63521926677792
H            0.63808239899424        6.08641072608073      -13.24338838893334
H           -0.02330746750301        6.91131071475847       -8.35804247761955
H            0.26023827317896        8.77817311848172       -9.93048406843043
H            2.51511259484671        9.62878570611766      -10.42483607693275
H            4.46807156783008        8.63547216449525       -9.29878867115882
H            6.34869104062349        7.81364554950155       -5.94798264652914
H            6.40435894242157        7.96933474379703       -3.49133267402242
H            4.60228222753408        6.94546201209488       -2.16381986668949
H            2.78949781262154        5.73355516926397       -3.29753275299366
H            3.80732028571251        2.96849512057184        0.64014651955940
H            1.35607131761565        3.95654651425466       -0.91715440346581
H            2.97606421799479        4.61524616795738       -1.06181275782603
H            2.07807791512327        4.81099903643901        0.44197048091545
H            0.92909418746803        1.93225650994394        0.61424665663608
H            1.67115165189504        2.78683994972951        1.95861547252888
H            2.27311721881567        1.19986535303737        1.49250711993032
H            5.71912009522222        1.54598473074659       -1.44402817160866
H            4.42422825081104        2.42690232229401       -4.08314351493431
H            4.84284630196689        0.76884112096076       -3.68194678424195
H            6.11369757895186        1.97424621412435       -3.89797479600642
H            4.69779811419741        4.26958831177710       -2.37253303819627
H            6.38662976093976        3.85506392700331       -2.14533898853782
H            5.30740225551991        3.91457796090405       -0.75446565777975
