96
 energy: -17.325620035674 gnorm: 0.000725274549 xtb: 6.6.1 (8d0f1dd)
C            2.05977480451787       -1.00233893187849        1.63843822974975
C            2.21236238863960       -0.34129134733221        0.27895163607156
C            2.89737031074002        1.01128866268066        0.35166781517518
Si           3.01863661940873       -1.50389993157441       -1.00025427544666
C            2.16502576724307       -3.06944159882630       -0.96795356604378
C            1.79855102167500       -4.22768586131778       -0.92153198998437
C            1.47189910937621       -5.58691557963026       -0.86189940828804
C            2.37860974817564       -6.52603729642023       -1.39986002906529
N            3.50794429094444       -6.07640135317940       -1.96188742514230
C            4.31928840383214       -7.01993605883881       -2.45115145075253
C            5.52760586516839       -6.63328348770027       -3.07379808470697
C            6.38782382816523       -7.55653136123808       -3.58624061968463
C            6.08764604153407       -8.92021583941679       -3.50457158119123
C            4.93256251638441       -9.33356898011199       -2.91300376862269
C            4.01264188719397       -8.40851116854477       -2.37013630215600
N            2.89045911596735       -8.86476008319267       -1.80379622585612
C            2.06789824628288       -7.92475268839335       -1.32303800140782
C            0.86053396377597       -8.32851988139476       -0.71462750389243
C            0.54546144042058       -9.68763328186173       -0.60502317056854
C            0.19572211232776      -10.83312531438345       -0.39498852572855
Si          -0.52978518243929      -12.28554791843514        0.34794557821734
C           -1.96683353891057      -11.62532370929585        1.41849635346220
C           -2.85707229375469      -12.69783116218472        2.01788279063361
C           -1.44611152056104      -10.65578194936096        2.46486117490350
C           -1.15663360169752      -13.38481245241108       -1.07555444924853
C           -1.39771037280614      -14.82693084343569       -0.66917201210470
C           -2.36909810903112      -12.75283022386246       -1.73485800393027
C            0.82350262833043      -13.19397510315780        1.34226925421546
C            1.86202096470817      -12.21378282484452        1.86043438153835
C            0.27260478051984      -14.07777278657976        2.44514214276674
C           -0.04687302377915       -7.38906300688946       -0.17931955238376
N           -1.17212592290015       -7.84017797781732        0.38942875436802
C           -1.98736500622066       -6.89752412646228        0.87285607192287
C           -3.20442787545607       -7.28558969158293        1.47699753418513
C           -4.06713852640365       -6.36359976053831        1.98726802357136
C           -3.76069780389786       -5.00040231374644        1.92095321133125
C           -2.59836639460287       -4.58587916699045        1.34443166149769
C           -1.67646274481352       -5.50942545696101        0.80256893903356
N           -0.55061779388721       -5.05271871036480        0.24372373400895
C            0.26469214877343       -5.99099865635125       -0.25318569834387
C            2.79745934844095       -0.70893600891123       -2.71767087386919
C            3.59210530623379       -1.43384669538190       -3.78813721310515
C            1.32144671900966       -0.63636890281699       -3.06875500205316
C            4.87435015630595       -1.83625981990587       -0.68059302942401
C            5.25071122095482       -1.80226098276611        0.78925200810176
C            5.27182583665587       -3.16446164814833       -1.30727981885520
H            1.41821450153145       -0.41515376575587        2.29820290518301
H            3.02168172172466       -1.10805319324077        2.13820504425016
H            1.62460779756869       -1.99938767439942        1.54842682248915
H            1.21132897891844       -0.21366353814681       -0.15773421373088
H            3.91590101737272        0.91632614508658        0.72629086884320
H            2.36542975754725        1.69022860093269        1.02098444456490
H            2.95349698213963        1.48846317321790       -0.62761579963851
H            5.75218076243199       -5.58318681216675       -3.13705170139594
H            7.30321609463290       -7.23832280014916       -4.05778245389319
H            6.77385074353875       -9.64378417399225       -3.91333634275284
H            4.69401499268654      -10.38077707726217       -2.84830058620572
H           -2.53967959819706      -11.06243794774943        0.66634688073914
H           -2.31746085092307      -13.28975940047789        2.75594153358954
H           -3.23672769162259      -13.38140798390788        1.25849728441485
H           -3.71793758323677      -12.25847776772433        2.52527708137009
H           -0.84874019436143      -11.17631350190656        3.21344445074607
H           -2.26289366410879      -10.15670965293060        2.98940066167698
H           -0.81702963793476       -9.88431012515603        2.01663380174776
H           -0.30339306819571      -13.34298625412477       -1.76915105643601
H           -2.19413892979147      -14.89820253092927        0.07094145155767
H           -0.50381924774747      -15.27904532307793       -0.23677349222716
H           -1.69450593355863      -15.43530665310986       -1.52550075654589
H           -3.23075694458641      -12.77666251300246       -1.06711425588688
H           -2.64886329206647      -13.28060265468227       -2.64852658297856
H           -2.18260372776404      -11.70860819486083       -1.99276188260715
H            1.27896601677126      -13.82288756070744        0.56310136593699
H            1.42427295792722      -11.53825508125196        2.59567700748667
H            2.27040017552166      -11.59927377743646        1.05604720765791
H            2.69375278820859      -12.73032043968846        2.34291669382469
H           -0.13564695100912      -13.47437584216875        3.25593937609842
H            1.05210305581724      -14.70904646967084        2.87584265485855
H           -0.52209423265697      -14.73074746529794        2.08197899386846
H           -3.43709990494356       -8.33511204784502        1.51913623541734
H           -4.99042774247991       -6.68228986974735        2.44276674344128
H           -4.44971266160914       -4.27778015945144        2.32657770940418
H           -2.35741136738900       -3.53876481223162        1.28774411090915
H            3.19981939949686        0.30521629157227       -2.58742579685348
H            3.27944184427912       -2.47657223920079       -3.85787439532715
H            4.66280561460267       -1.41649648202173       -3.57919704930205
H            3.44195020028011       -0.98050898479883       -4.76961463131251
H            0.89427712646898       -1.63823814242091       -3.13028754268990
H            1.16355746765044       -0.15053030239297       -4.03339151147400
H            0.75190657841966       -0.08221155543944       -2.32168573927669
H            5.36812671031538       -1.00826369384864       -1.20889304462861
H            4.69472843871860       -2.56000018861878        1.34289066662078
H            5.04582317931611       -0.83386677859693        1.24477966051976
H            6.31323055972544       -2.00946711333176        0.92970027385916
H            4.78637923817291       -3.99234804243262       -0.78776877672235
H            6.34954673962751       -3.32864705165080       -1.25022805322068
H            4.97717490120212       -3.23020729201409       -2.35451797880419
