99
 energy: -18.049377014295 gnorm: 0.000947292701 xtb: 6.6.1 (8d0f1dd)
C            2.72303844529521       -0.94644677973824        1.09858290436345
C            4.21566849706951       -0.67524944757141        1.02143846885883
C            4.90004178229024       -0.94623345930072        2.34931312427732
Si           5.02169199044928       -1.70412093819286       -0.36458269695421
C            4.65479227448169       -3.42203282366446       -0.05021215541704
C            4.08778221345449       -4.47055497019723        0.18969124816146
C            3.30311529287382       -5.59491767554084        0.45777474963885
C            3.90351401869880       -6.86103663445034        0.67480610713000
N            5.19660460594903       -7.14816710291541        0.65872639287206
S            5.36704100457622       -8.75211642153787        0.96378234057514
N            3.77694071863091       -9.12772560434732        1.12577189611474
C            3.07199152019895       -8.02070881091594        0.94950171360527
C            1.66023789841098       -7.88547286269566        1.00465041134967
C            0.86065455561524       -9.00257427271486        1.26385395043143
C            0.12525391631310       -9.94531581964472        1.48491494576553
Si          -1.05970871032503      -11.25579260775741        1.73887212634416
C           -2.06024613310942      -11.38263765782607        0.11785822433147
C           -2.99383410634884      -12.57602776682110        0.03629785805823
C           -2.77340721105013      -10.07226150121629       -0.16079361937950
C           -0.04116299047613      -12.83250845732336        2.06346564921850
C           -0.83736315572985      -13.95362692432308        2.70586461624702
C            0.66931989431463      -13.27138647519440        0.79602108270513
C           -2.10866044960646      -10.83741500035994        3.27932179471969
C           -2.23899768254678       -9.33488442769730        3.45585590421642
C           -3.45767825036419      -11.53107021342606        3.30052250125820
C            1.07631810771601       -6.62242908901333        0.79177835334988
N           -0.26736866487468       -6.52823143221771        0.85845694270797
C           -0.76839318774114       -5.32479174388427        0.64918650454263
C            0.04358630616896       -4.18883992579056        0.36394389687043
C           -0.58828876844969       -2.92480859238163        0.14313930711812
C           -1.92698068936809       -2.76828440758077        0.20350228277155
C           -2.78795512582383       -3.87303801322171        0.49480162857145
C           -4.16269741087036       -3.72782268371798        0.56851288640236
C           -4.99758325337758       -4.81726596907046        0.85888943114824
C           -6.40575374883377       -4.68583010176611        0.94265830072533
C           -7.18784371881997       -5.76212695143014        1.22947094143835
C           -6.61283349928316       -7.02361472839361        1.44787515607823
C           -5.26423149803675       -7.19034593879797        1.37573165279636
C           -4.41645129589128       -6.09578910380974        1.07926496297474
C           -3.02353651270023       -6.23148125442589        0.99927920161477
C           -2.20681904312238       -5.15646426938929        0.71635084307601
N            1.36485414339198       -4.25399834607366        0.29803012093101
C            1.90062892773095       -5.47146205599195        0.51363274362609
C            4.28424995794266       -1.21991424469018       -2.05556443584482
C            3.00332302028718       -1.98249821873344       -2.35226157129439
C            4.11336525760301        0.28265914923614       -2.17830549496225
C            6.90547292561032       -1.39447270103232       -0.34433761133244
C            7.59144184891246       -2.44193959009586        0.51643304804115
C            7.50370288999305       -1.33792967944890       -1.73845377466512
H            2.26295795766093       -0.40784689250798        1.92895054423056
H            2.53295077787433       -2.01007724400773        1.25049337056578
H            2.20714246267956       -0.64492721082684        0.18718259452520
H            4.39376419551062        0.36636070031689        0.71948923880438
H            4.81478017245802       -2.00092862145347        2.61497303888353
H            4.44772195395216       -0.36647324421480        3.15607437546300
H            5.96134129133820       -0.69551874154556        2.31761346129181
H           -1.24946229107389      -11.51048707869515       -0.61486924059506
H           -3.78899273786204      -12.50474781772672        0.77721880403787
H           -2.46737684935931      -13.51560819071041        0.20371362419660
H           -3.47119478886522      -12.63730279082452       -0.94343314065637
H           -3.58009301700160       -9.91312333365043        0.55418788303954
H           -3.21492876999047      -10.06004854324611       -1.15904218676984
H           -2.09100488739797       -9.22365418160509       -0.08614158714368
H            0.70217769112884      -12.46018162578663        2.78437530199701
H           -1.62855982413661      -14.30331635097167        2.04363181380027
H           -1.30471183169222      -13.63374753234669        3.63829674032844
H           -0.20122400449984      -14.81108367569124        2.93285361138831
H           -0.04462750723378      -13.63547430691911        0.05659735870156
H            1.37719890222466      -14.07863709508642        0.99312313999069
H            1.22009247144785      -12.44506302544855        0.34239193399199
H           -1.47722616798915      -11.24054665989549        4.08479146524028
H           -2.83791855858081       -8.90627414694379        2.65371307861402
H           -1.26615693356406       -8.84042612266122        3.43749052537535
H           -2.72648544473827       -9.08243722009487        4.39926548045159
H           -4.11772417567789      -11.11571524058231        2.53886169946357
H           -3.95619465786473      -11.40170997472526        4.26298778774697
H           -3.36591525304489      -12.60177412524638        3.11407606969942
H            0.04548590614055       -2.08409924270014       -0.07706813492520
H           -2.36896225816390       -1.80185677333577        0.03308652705214
H           -4.60096245655006       -2.76048829180040        0.40229185978382
H           -6.84881461831436       -3.71902728415838        0.77658326048292
H           -8.25785051252994       -5.64863131057843        1.29111162564462
H           -7.24745630852412       -7.86465078650791        1.67500402118498
H           -4.82763279320158       -8.15832255853909        1.54652366165840
H           -2.57153284546979       -7.19106158156487        1.16228931394727
H            5.06282710669899       -1.55950242431209       -2.75288756534307
H            2.20387967563791       -1.69021734612903       -1.67301697014204
H            3.14335401047420       -3.05917374614130       -2.24118591311415
H            2.65221181563232       -1.79353971485352       -3.36830145623950
H            3.32741185773117        0.63952237114089       -1.51214030865066
H            3.83578822362995        0.57171042423817       -3.19370048821855
H            5.03038860026232        0.81321428826295       -1.91593856060392
H            6.98956135623513       -0.40655143372458        0.13066579382948
H            7.50457748703137       -3.42828687601032        0.05841841195297
H            7.14545471998538       -2.50765709839609        1.50967604755029
H            8.65486113829210       -2.22775365649134        0.63818450717313
H            7.34962742174515       -2.28317144806713       -2.26063296336189
H            8.57935939718807       -1.15616439775460       -1.70150100334161
H            7.05647599723947       -0.54632627455262       -2.34147330881852
