93
 energy: -16.662968860860 gnorm: 0.000843425753 xtb: 6.6.1 (8d0f1dd)
C            2.44660956854941        0.49640274419942       -1.43771580284190
C            2.52663703947387        0.30013332293574        0.06657893596414
C            3.47309109746167       -0.81750398175902        0.46813280894570
Si           2.89168913390599        1.93320028164360        0.98122541886872
C            1.90480931944254        3.23223091814638        0.25975832407873
C            1.49264545028453        4.23292216868019       -0.29469250992749
C            1.13959302634426        5.42252045788599       -0.93537405535883
C            0.16235128874200        5.41854070508487       -1.96411247603444
N           -0.51459907682046        4.37580877274023       -2.42016483943215
S           -1.51513310073122        4.89890250140728       -3.61272903635563
N           -1.10114207920356        6.48820390399183       -3.58283612459234
C           -0.17931475230785        6.65532534872151       -2.64773188933804
C            0.46681230331751        7.86579557921476       -2.28599916343232
C            0.16093133212786        9.06187765475275       -2.94053120179955
C           -0.04091808771277       10.14945869174046       -3.44567253564257
Si          -0.20275939371432       11.84807343318554       -3.96926366043572
C           -0.30098519792957       12.88015106924153       -2.36634194559652
C           -0.19473713250832       14.38042492429365       -2.56571780254676
C           -1.52884964407161       12.48879950384550       -1.56428422878532
C            1.37322546679091       12.23775973243381       -4.96639804715613
C            1.26813308378060       13.49301564007292       -5.81293040530596
C            2.58518796613323       12.24607254576365       -4.05222340389802
C           -1.73975975245421       12.00203439685227       -5.09067790824628
C           -2.79847187463718       10.98805994564171       -4.69272374319980
C           -2.29645308735618       13.41143041983804       -5.16392424230081
C            1.43202391958357        7.85796306796638       -1.26066238417704
N            2.01816642828444        9.02735706026938       -0.94387826926095
C            2.92165523345979        8.97375590544348        0.02056581026332
C            3.26829943757286        7.76312099752545        0.68498219350548
C            4.25858034734499        7.80289500472193        1.71137899490240
C            4.87603333540076        8.95063792408853        2.06803299065209
C            4.55806958969046       10.18607269086520        1.42837563991316
C            5.18443192146807       11.39092657814382        1.78277414111352
C            4.85549283295193       12.56212593277071        1.15231425800282
C            3.89125925308432       12.57262331281532        0.14913836240092
C            3.26666526302165       11.40970873050443       -0.21416672907313
C            3.58322024420586       10.19841985759758        0.41025992685036
N            2.70520821181861        6.59766875791638        0.38871721739951
C            1.77495963124013        6.63067374568102       -0.58295332958977
C            2.39059488914441        1.66063089079038        2.80121802544266
C            3.01382067902343        2.66707175384517        3.74948914588332
C            0.87617055015531        1.64674442017090        2.91498657006234
C            4.71920848731760        2.47728416298122        0.84209125443026
C            5.30855280402344        2.18816553154362       -0.52666640768487
C            4.85314541609352        3.95530772601935        1.17763524562476
H            2.07124693697738       -0.39847028386295       -1.93759643774679
H            3.42678332696328        0.71409940351181       -1.86012303130444
H            1.78796837525353        1.32735738538147       -1.69723998144136
H            1.51986319839811        0.06734734345289        0.44269828422017
H            4.49180380228730       -0.60502387223210        0.14559238800494
H            3.17970322510170       -1.76682350328458        0.01575914217142
H            3.49659249611569       -0.95810884071249        1.54988975670714
H            0.59600229706749       12.52504091557600       -1.83837886491890
H           -1.03912583919941       14.76198335620913       -3.13837050308884
H            0.71714981347285       14.65614615712706       -3.09534227203355
H           -0.18957954196796       14.90615622034301       -1.60912330793160
H           -2.43975642530529       12.83061370454610       -2.05591257718665
H           -1.51162719197725       12.92992592229085       -0.56586649164882
H           -1.60165474472846       11.40549282290013       -1.45066023183700
H            1.42689210538537       11.36123523677878       -5.62951484176473
H            1.14259134803310       14.37842932974192       -5.19091638618440
H            0.41999590738771       13.44757691222968       -6.49764348928192
H            2.16801393739764       13.64265967271975       -6.41231065044412
H            2.54493164476599       13.08765803209872       -3.36002236746970
H            3.51383992390220       12.33253042100260       -4.61935456021940
H            2.64003934554727       11.33236358784137       -3.45736742120467
H           -1.32240261306301       11.72273319153911       -6.06939699386616
H           -3.19487445976565       11.21071475791041       -3.70177762776876
H           -2.39235809862798        9.97532182961933       -4.66136164383615
H           -3.63752879557136       10.99084619737137       -5.39082557278028
H           -2.75415241060132       13.69644769224615       -4.21665523155331
H           -3.06781280030566       13.49483338280126       -5.93179716385274
H           -1.51980421769626       14.14268872933128       -5.39117172477417
H            4.50300493880353        6.87862428256438        2.20459841718169
H            5.61958855547688        8.94845346681193        2.84614983288782
H            5.92894804467828       11.38311329588051        2.56021088577268
H            5.34362815216413       13.48066823084458        1.43435406061921
H            3.63556523523051       13.49763924295815       -0.34141223002674
H            2.51800517397256       11.40466474456181       -0.98608274027806
H            2.78768517082096        0.65992637905272        3.02147017139476
H            2.68457837869224        3.67807766391597        3.50654881580442
H            4.10364825850427        2.64465208330748        3.70381799921739
H            2.72450395582942        2.47013497250833        4.78344282307078
H            0.46541455679429        2.62382035188184        2.65659827833955
H            0.55321041598426        1.41184264458093        3.93104003552287
H            0.42552344350642        0.91525537767897        2.24268730138627
H            5.22587736854739        1.86884459242597        1.60421247342368
H            4.74058122000195        2.70303261632438       -1.30271159435370
H            5.30849159028587        1.12420672740381       -0.76044271149452
H            6.34091034749025        2.53616390167226       -0.59417846833120
H            4.33355263956474        4.56455182062902        0.43679077119727
H            5.89782859954985        4.27113398941829        1.18356146204878
H            4.42589203638258        4.19950317818244        2.14901109702929
