101
 energy: -18.508879065597 gnorm: 0.000307207907 xtb: 6.6.1 (8d0f1dd)
C            1.07162384044463        0.79764168016032        0.26880224829058
C            1.59804802323620        0.92813026425487        1.68613374520623
C            0.49785221031796        1.15802774383452        2.71100169772966
Si           2.76648233063786       -0.49881532351320        2.17606635069218
C            3.34307111120941       -0.11414875783366        3.82107369453063
C            3.38455486560162        0.31838460409709        4.95666246605017
C            3.23619254687218        0.86674388433544        6.23440102755079
C            4.20927140445881        1.75297866112427        6.76950467568044
N            5.34322435837564        2.13383999777516        6.20304689227245
S            6.09963592434576        3.17262064659074        7.22435592617210
N            4.98085933164592        3.17454745685528        8.42555365556157
C            3.99591812947861        2.36493184175122        8.07078815000807
C            2.81083927786035        2.07929096016350        8.79882885826134
C            2.53666721811813        2.67514990934502       10.03400592023024
C            2.10061461214807        3.11256288321456       11.08148433931100
Si           0.96553041373955        3.47853353076762       12.41129888573753
C            1.45463215749211        5.17788753719703       13.12741053491410
C            0.44729373060453        5.76760696785583       14.09666734282149
C            2.85355781031787        5.11501734684653       13.71349531556618
C           -0.74821501419563        3.51279678324261       11.57582316115053
C           -1.90899914584007        3.37218339232419       12.54303923313062
C           -0.88139303832746        4.72682939108841       10.67560214089663
C            1.02533672117403        2.04473757069179       13.67033718221654
C            2.41060318750312        1.42406184899832       13.71106949562603
C            0.52918031125929        2.42935788148612       15.05131351180682
C            1.86276561236415        1.19958902795369        8.25289210897843
N            0.73483423859363        0.96225671975715        8.95833181211901
C           -0.16211415227781        0.16855370644756        8.41147475534630
C           -1.36653652032793       -0.04320161533268        9.23626799484335
C           -1.21294229577449       -0.00365041469033       10.62274487627776
C           -2.29371550373597       -0.04196356936253       11.47114869543999
C           -3.57222668958834       -0.09858240527810       10.95303017729759
C           -3.75522318303440       -0.13609043434208        9.59024833493434
C           -2.67415698747988       -0.12446501099403        8.71854131455513
C           -2.94943130832150       -0.22825895858858        7.26863313619049
O           -3.79073138410784        0.46883452161136        6.73198546750490
C           -2.25691814214188       -1.30367069228833        6.52543589448079
C           -3.02736095885880       -2.20483986668429        5.80228206511227
C           -2.45005141450890       -3.26387876848141        5.14089960554246
C           -1.08079009153513       -3.43618574994942        5.18698695968475
C           -0.30050145645009       -2.53681808795870        5.87396266588009
C           -0.85783297112055       -1.45565059712709        6.55655136229146
C            0.06497693876411       -0.46736207811283        7.14705683579296
N            1.16533412875426       -0.26219967652443        6.45187318641220
C            2.07616167263649        0.58885267364347        6.97532146577700
C            1.92735096816155       -2.21601227055635        2.15243675811885
C            2.59510858727191       -3.11867369535224        3.17688143172665
C            0.42705771632212       -2.16100070345368        2.36999114450558
C            4.23972382831111       -0.49831244169441        0.97012678814862
C            4.94760481122592        0.84488077317034        1.00754856248113
C            5.19072247835150       -1.64447246726276        1.26305906541361
H            0.49890177824858        1.67916375638185       -0.02450621759255
H            0.41381901748375       -0.06506382167586        0.17092952567613
H            1.88141291303736        0.67237239907016       -0.45146782244347
H            2.29483521132264        1.77777311588721        1.73398801912681
H           -0.27264573732328        0.39150680541252        2.64602814762508
H            0.00441121114969        2.11934654115896        2.55764329982206
H            0.88956754112776        1.14313175200942        3.72968595980688
H            1.47550999182947        5.78979190969362       12.21334711112687
H            0.37067823147902        5.16337558600020       14.99964139553098
H           -0.54775751826892        5.83364538866062       13.65686073929750
H            0.73820582454793        6.77332387993877       14.40506621907615
H            2.86674022693843        4.51610381805187       14.62414898050988
H            3.22469465977533        6.10872861392947       13.97082954613260
H            3.55888673263965        4.66417014341350       13.01291859480489
H           -0.69168021862151        2.61040310814569       10.94914365134778
H           -1.97094072159407        4.23109167951228       13.21021427416640
H           -1.81212088825659        2.47989814170444       13.16247011566110
H           -2.85979068182303        3.30264655131205       12.01164479022940
H           -0.92812135707581        5.64371832214854       11.26368930446791
H           -1.78872605501407        4.67709195047903       10.07091487617506
H           -0.03104291869051        4.81321690257264        9.99670406060277
H            0.32404213853416        1.32829191592183       13.21841255305466
H            3.14071106742074        2.13280957828603       14.10253567340895
H            2.74513657558159        1.12617546821864       12.71576299280114
H            2.43397766018763        0.53996710023082       14.35062221221901
H            1.22706665608134        3.11092772850989       15.53726084807111
H            0.43194317037539        1.55444077740414       15.69661823926205
H           -0.44287602372716        2.92212429235754       15.00999648533427
H           -0.21617124525078        0.07916994393558       11.02092186922775
H           -2.14448463899187       -0.01535519760444       12.53808879696168
H           -4.42348383375199       -0.11585437797359       11.61361519864001
H           -4.74713897518886       -0.18111982151247        9.17372561780355
H           -4.09407208972897       -2.06069594171826        5.77635442515217
H           -3.06429332310723       -3.95826254175054        4.59149782196607
H           -0.62379641419538       -4.26730853491753        4.67529053938429
H            0.76982642759952       -2.64826956552162        5.88804202428411
H            2.13834102134597       -2.58112841557058        1.13724051070935
H            2.43112766297702       -2.73545732859644        4.18452910701704
H            3.67348321523311       -3.17961106752358        3.02890886937717
H            2.19302345051193       -4.13276239188533        3.14014482414696
H            0.19817290801490       -1.71246117089142        3.33687338283390
H           -0.01124454236022       -3.16034187176688        2.36132608282962
H           -0.07861513574239       -1.57861419078422        1.60063376956511
H            3.77479305884730       -0.64827733131115       -0.01421860275017
H            5.32698915085260        1.04937575868942        2.00971316413723
H            4.28123060322051        1.66411471373050        0.73435723843714
H            5.79715682917075        0.86675236169552        0.32266656742022
H            5.56685506830094       -1.57856870118483        2.28487028177977
H            6.05257105180858       -1.62711420450119        0.59360824715967
H            4.70408102304711       -2.61388015099442        1.14737777721550
