130
 energy: -22.741993789427 gnorm: 0.000418501040 xtb: 6.6.1 (8d0f1dd)
C            0.66748228631215        0.62662313530768        0.23296053963679
C            2.10414021963866        0.13163337160737        0.20549621788378
C            2.90846420347854        0.85256790026588       -0.86190866520600
Si           2.87966195566523        0.25419073631279        1.94785780652241
C            2.31303974153119        1.74413391352290        2.75228953821082
C            1.99626881397064        2.79076990870831        3.28195170385648
C            1.66453422348758        4.02774907952011        3.88076403784389
C            2.15848127453578        5.21316205423278        3.36339520760379
C            1.85962619618152        6.45089582191892        3.93211706792390
C            2.39351970911547        7.66139705757028        3.36889131796335
S            3.35524933171099        7.61176428582009        2.05230264054468
C            2.06468911847498        8.91625392640529        3.98897533028319
C            2.56597494205739       10.11313910708268        3.47716804624216
C            2.27190510918403       11.33849167570434        4.05101284851395
C            2.79914498108221       12.53573052144368        3.51428201131534
C            3.26148904316197       13.56074844851790        3.05359205742868
Si           3.96234905070202       15.05101363856736        2.36085223265409
C            2.52407010337503       16.02174991145995        1.56539916219161
C            2.86847767782827       17.43954788215924        1.14697236195050
C            1.91104149789500       15.22004230962902        0.43110845549457
C            4.72544476120339       15.99718236757823        3.82876519685689
C            5.73643189490507       17.05380303589644        3.42178171494581
C            3.63271574762332       16.54894802987228        4.72683725820525
C            5.33387766213256       14.56159286999904        1.12561602127223
C            5.00640273944489       13.24163740304064        0.44847747522958
C            5.66407774829901       15.65012209897566        0.12106930605135
C            1.45182374356172       11.35921233108118        5.16649587650197
C            0.92342566892091       10.19245228002807        5.71906799793809
C            0.07707544727446       10.25139066930601        6.87991394295832
S           -0.28577767808235       11.68322741645697        7.57190434117371
C           -0.44263115848200        9.02434860591243        7.42013394835270
C           -1.26501611837443        9.03833519341080        8.54639125316439
C           -1.78145914030742        7.87665041361740        9.09489858678837
C           -2.61075573234287        7.93043877342420       10.23911111073556
C           -3.32034128508031        8.00254955871956       11.22301166151163
Si          -4.34165409811428        8.15858481637461       12.68084326350003
C           -3.24653209416413        7.69360252328544       14.17360300943549
C           -3.84942989881045        8.01265662240801       15.52956229925934
C           -2.80020857041533        6.24621250223532       14.06858046355766
C           -4.87720970107680        9.98674520195555       12.74310573522164
C           -6.07681614143307       10.24745875516792       13.63602982784004
C           -3.69249819159955       10.87351122267781       13.08258394269770
C           -5.87858760574906        7.04378973651124       12.47926313431418
C           -5.54456600650340        5.80519239334463       11.66572355034227
C           -6.55487045440660        6.69697575768727       13.79284436480315
C           -1.46215942158258        6.67045892709321        8.49404753787329
C           -0.64428678882891        6.59883301218673        7.36577722927225
C           -0.33108566568133        5.32900513670270        6.76741993403538
S           -0.92657193502047        3.94610717688108        7.39460489485788
C            0.51753976356039        5.30065715164192        5.60651302906166
C            0.84851147168995        4.08957505119066        4.99784368942484
C            1.02572821862337        6.51156386899079        5.07533945394287
N            0.71113907626772        7.74721095469309        5.67085422075382
C            1.22732391973315        8.94027857201269        5.13106735069134
C           -0.11756053589396        7.78948144678720        6.80757927127707
C            2.37808616797943       -1.27303944704071        2.98200501238180
C            2.46513262610614       -0.95334542253342        4.46526319632710
C            1.00967002616882       -1.82318479387867        2.62122817288299
C            4.78350823863540        0.31806796464201        1.78964729818855
C            5.24047879820184        1.74016561890906        1.50711155110406
C            5.50682202559929       -0.25714799586664        2.99455629934657
H            0.17072286902639        0.46599034773831       -0.72578125885924
H            0.63724303101064        1.69683905190964        0.44266616640374
H            0.07674424328273        0.13057334689568        1.00295305469670
H            2.12696773690308       -0.94907309417028        0.00668154525729
H            2.93127413598018        1.92507180814658       -0.66567326627466
H            2.46756552062494        0.71432212710983       -1.85096503533121
H            3.93858197459034        0.49696762195521       -0.90868303022186
H            2.79366024220732        5.17470555679280        2.49775989789235
H            3.20188092057220       10.08638754202428        2.61169040041987
H            1.81255731250184       16.05744227550268        2.40401550990932
H            3.60968008849261       17.44479339091024        0.34870769549892
H            3.27061063904966       18.02201208483928        1.97590636789795
H            1.98812292719122       17.96569474952464        0.77304591440781
H            2.58715390472396       15.17578171947181       -0.42294956554883
H            0.97731744870186       15.66698629044802        0.08412126374961
H            1.69870067022585       14.19381504278622        0.73712398335382
H            5.24839678053438       15.18387341142048        4.35426557340685
H            5.26759197054210       17.83974830267457        2.83056102518721
H            6.54560517337587       16.62958238718899        2.82539867741623
H            6.18580104865090       17.52900161474931        4.29580172781151
H            3.09050546067068       17.35425364607216        4.23042155167179
H            4.04288234199963       16.95378561853341        5.65406541713665
H            2.90597529485702       15.77762664244444        4.98948280143282
H            6.18992226112402       14.41706770764164        1.80127141168599
H            4.12671945431196       13.34045338149861       -0.18806446889207
H            4.79550759602038       12.45745599521338        1.17789069349282
H            5.83027133908298       12.90006116563579       -0.18104534370618
H            4.84851879010939       15.78068434609204       -0.59019362003082
H            6.55678528226785       15.40120267602063       -0.45589723510337
H            5.83881908906346       16.61121246024503        0.60607643510587
H            1.21832532956329       12.30498013049967        5.61939899333890
H           -1.50669929266361        9.97891531682753        9.00585403851130
H           -2.37925089135079        8.34899063773529       14.00299293615503
H           -4.74192972508559        7.41575351148389       15.71332479508907
H           -4.13032376414486        9.06252648933167       15.61305339359290
H           -3.14539425943595        7.79651612539771       16.33534808068741
H           -3.63545459963711        5.56836101717423       14.24574298666592
H           -2.02846229456038        6.01099013806147       14.80415045376884
H           -2.39900526215290        6.02327641456075       13.07801075183273
H           -5.16658971661051       10.15673895372891       11.69503455430368
H           -5.85110589712883       10.01443221542504       14.67612689174659
H           -6.93760145228029        9.64518990930665       13.34156225408500
H           -6.37937211789286       11.29557140368052       13.59627771552267
H           -3.37635044772712       10.72235782134923       14.11510769903679
H           -3.93795061534625       11.93101273811542       12.96723992248491
H           -2.83561491127491       10.65579660016768       12.44198300932826
H           -6.54042530285210        7.69486599565601       11.88910668296086
H           -4.84701717598773        5.16387131952494       12.20510726369560
H           -5.08012340115196        6.06426424485815       10.71248589479095
H           -6.43721300904750        5.21370251230076       11.45340650846097
H           -5.93817120639553        6.01403292428633       14.37707837220720
H           -7.51410091572036        6.20257803426918       13.62787718547241
H           -6.73778808025584        7.58286343236701       14.40210131958925
H           -1.85743922410177        5.76332903287628        8.91233153542043
H            0.46158589532033        3.17485532954910        5.40729724944071
H            3.14596963252925       -2.01059612073378        2.70928003278678
H            1.71820043376971       -0.20632546085164        4.73841320744627
H            3.43965423095319       -0.55051319607427        4.74165120804779
H            2.28260695438540       -1.83898210372973        5.07701360376194
H            0.23012547193320       -1.09901040193911        2.86039443512479
H            0.78802934680042       -2.73375572535141        3.18126844442873
H            0.93211409376787       -2.06379094653301        1.56008826370135
H            4.97406333953632       -0.32005908381986        0.91531333509735
H            5.04821690836163        2.38082737679912        2.36900608712075
H            4.71684830907915        2.17839167433030        0.65766700471371
H            6.31124333670978        1.78322810081024        1.29898855616381
H            5.30703026408509        0.34217944104956        3.88347913042044
H            6.58803081486033       -0.26005226358464        2.84332769499340
H            5.20147664999511       -1.28299524333993        3.20450087518813
