98
 energy: -17.628375559692 gnorm: 0.000552535267 xtb: 6.6.1 (8d0f1dd)
C            0.18649500489374       -0.25921095111833        0.91226694100053
C            1.60410880896551        0.11166383564561        1.31029201876281
C            2.32272718563933        0.85030612147229        0.19414326113667
Si           1.59978528805693        1.14167744131087        2.91279554730268
C            0.87383146848036        2.73408244724206        2.55970610521152
C            0.63026528602380        3.86016245409230        2.17376955764060
C            0.48423161101500        5.16518683073484        1.66268697661180
C           -0.64777911806614        5.90235407488445        1.90970951909621
C           -0.79010134815736        7.18940503077197        1.40072469515990
C            0.20442163199858        7.76723417661411        0.65020179741362
C            0.05109697525595        9.05836913806328        0.10509025295866
C            0.00842921401188       10.13287632387450       -0.46097121417207
Si           0.23604805098394       11.53463697622670       -1.54470360352123
C           -1.46403969769211       11.98646325899161       -2.28331681244406
C           -1.49259614295650       13.30398923745284       -3.03632134066331
C           -1.99706613324252       10.83550948257770       -3.11738920803777
C            0.93606310409099       12.93035153203653       -0.45204678397989
C            1.64774730909265       14.02164295726518       -1.23052113018342
C           -0.14481308481540       13.47551636692048        0.46404661183882
C            1.52717382582134       11.03309670553535       -2.85868073326772
C            1.43406441203532        9.55319367669356       -3.19307411796078
C            1.51032676882576       11.89862159464677       -4.10443675798876
C            1.40525131285801        7.04547513044747        0.38656585117021
N            2.37886769357848        7.64584504920198       -0.32089352264847
C            3.45017042649076        6.90701726471976       -0.54557599676114
C            3.55765494159501        5.55751291779601       -0.10700926173633
C            4.72597013478761        4.80503281170676       -0.45996164481711
C            5.73036362297294        5.33475146922027       -1.18514253619050
C            5.68647472675655        6.69688665590081       -1.62674332710954
C            6.71793235805392        7.25897784502317       -2.35815775759632
C            6.67764310828291        8.60079113758067       -2.76488685545874
C            7.72251094443293        9.19136263119190       -3.51933206408987
C            7.65791066314478       10.49853941630561       -3.89018215665142
C            6.55506544746028       11.28912803273228       -3.52790650987754
C            5.53314762359508       10.75910142365951       -2.80350434189817
C            5.55874279470456        9.39962999742946       -2.40523487136782
C            4.51718299493912        8.81771923858811       -1.66917080856007
C            4.55284289812941        7.49251752924275       -1.28862698032922
N            2.61955065682013        4.96644282453830        0.61716972811165
C            1.53865011454571        5.72140771839868        0.88008567593407
C            0.58669726399100        0.21048363506269        4.23669356526682
C            1.18182155923928        0.33828549382310        5.62774510459401
C           -0.85931722599241        0.67595803886587        4.20351293381603
C            3.38736076934079        1.40855096892427        3.52319617361404
C            4.21361517745603        0.14229550056166        3.39470638715687
C            4.04334887191613        2.60476918009531        2.85353163836431
H            0.17199988877413       -0.85023110841363       -0.00554463006958
H           -0.40817808739339        0.63817001811364        0.73480452235784
H           -0.31370264788168       -0.84177963144738        1.68749195410781
H            2.16111735078778       -0.79683543191746        1.57936643050383
H            1.86289161298500        1.82427709855808        0.01950614392128
H            2.28052485595257        0.29264981218634       -0.74335379087425
H            3.37398806651393        1.01927475124438        0.42740643114337
H           -1.43427690059102        5.46669305122527        2.50215931247219
H           -1.69195153035506        7.74659627696190        1.58926674214871
H           -2.07015975799751       12.07967651418428       -1.36974416150132
H           -0.85968093807651       13.26366719054353       -3.92209455610245
H           -1.14506685733018       14.13299145526403       -2.41959122745709
H           -2.50296815748284       13.54532361227946       -3.37196675162465
H           -1.42311689137658       10.72492041027848       -4.03770246908385
H           -3.03923351933146       10.99542403861224       -3.40095434382880
H           -1.93729998177121        9.88926932563328       -2.57606373708386
H            1.67450172125987       12.37787838947947        0.14858173721247
H            0.96054979220442       14.53807286584472       -1.90019827990604
H            2.46131615671841       13.61990296130629       -1.83655770309662
H            2.07448563233277       14.77099371117333       -0.56115053071787
H           -0.89596114094545       14.02522081603417       -0.10390531624749
H            0.26796564473241       14.15980760635035        1.20790663013143
H           -0.65897145200849       12.67178947926365        0.99486138677513
H            2.45499841566430       11.21915463110370       -2.29993731669507
H            0.50148255786447        9.33059961884654       -3.71178998629141
H            1.46261982524789        8.93320178325360       -2.29548990982035
H            2.25410822402541        9.23795468883855       -3.84102087344707
H            0.61921937356073       11.70172575984074       -4.70055785308453
H            2.37434083264636       11.69553859068977       -4.74025030944578
H            1.51887676053704       12.96167418401409       -3.86102457224694
H            4.77670960318063        3.78224976630012       -0.13097752144712
H            6.59153362014054        4.74006377858072       -1.43657867209702
H            7.57102947150217        6.65777450537118       -2.61592445971450
H            8.57020331317006        8.58764839892889       -3.79463501348103
H            8.45858927226815       10.93553733110563       -4.46444807403620
H            6.52239214786014       12.32431569500084       -3.82656026368107
H            4.69546151843547       11.37103418462353       -2.51873386235651
H            3.67303389192789        9.41522130632483       -1.38137452494953
H            0.65018919043568       -0.83622127738504        3.90622790132753
H            1.21630317020530        1.38430076530220        5.93574111961102
H            2.19789511961650       -0.05663076330208        5.67415282148205
H            0.58460121464591       -0.20070858462344        6.36567789650109
H           -0.93211272533471        1.71645462487255        4.52381462976460
H           -1.48794376638204        0.08163261522201        4.86949312730655
H           -1.28270544359806        0.61712616977949        3.19981289542860
H            3.23505596152000        1.64295023573187        4.58607222270225
H            4.39904140675941       -0.09495175567544        2.34655888917786
H            3.70543358562880       -0.71537138153630        3.83922540991055
H            5.18532333555124        0.24788603374361        3.88104985762276
H            4.21430567627342        2.41541884303379        1.79509971483334
H            5.01140371366867        2.83412869614908        3.30279659781925
H            3.42027856959724        3.49807771256345        2.92536633218869
