38
 energy: -8.582399867924 gnorm: 0.000418259212 xtb: 6.6.1 (8d0f1dd)
C            0.86996109405353       -0.07351008297566       -0.02837564206052
C           -0.35210990681581       -0.05850441831472       -0.01392550294759
C           -1.75822188007749       -0.04948416253351        0.00609264536465
C           -2.43688750142809        1.16671048007455        0.02107061471512
C           -3.81096967631678        1.22709479719102        0.04630811982496
C           -4.57784364810900        0.06049341598291        0.05858610033129
C           -6.00699156250505        0.08835387848567        0.08810203655587
C           -6.73062613872079       -1.05306637895061        0.09962249124847
C           -6.09386549680330       -2.33363699405540        0.08195530820316
C           -6.81786486122348       -3.52691486279846        0.09188089206765
C           -6.17086111180872       -4.74510225950867        0.07330438616376
C           -4.79324382660591       -4.81145644577892        0.04481396574122
C           -4.02255061463928       -3.64775597623287        0.03432908174155
C           -2.59325721044279       -3.67655342391669        0.00563674038343
C           -1.87038862987387       -2.53487576151570       -0.00311984209911
C           -2.49947872392350       -1.25030170021801        0.01478921697022
C           -3.91515433075132       -1.18970581550638        0.04198238807167
C           -4.67906253959185       -2.39359013987587        0.05288018815798
C            2.28046219502617       -0.09183745906629       -0.03929530545339
C            3.00692007824101        1.09472103211214       -0.03913342275552
C            4.38574978307342        1.07632709881060       -0.04681615944984
C            5.06113474775236       -0.12704145396381       -0.05479252225591
C            4.35523018130410       -1.31284323821491       -0.05555582636189
C            2.97632982740614       -1.29652340883019       -0.04792604759711
H           -1.85996569492164        2.07586905441047        0.01340453732795
H           -4.31017288792666        2.18060489629581        0.05787284775856
H           -6.50172126569383        1.04410869640378        0.10191043380960
H           -7.80592770929231       -1.01370752787813        0.12249975136830
H           -7.89322087319705       -3.48525212680333        0.11421293656021
H           -6.74821031170044       -5.65518200685093        0.08111565400493
H           -4.29732439988220       -5.76665522586526        0.03038346576266
H           -2.09834249418201       -4.63217046516273       -0.00884764748238
H           -0.79552684669766       -2.57761909847779       -0.02461649513208
H            2.47485106420421        2.03080555031907       -0.03237425287278
H            4.93602001299375        2.00310192765889       -0.04600467145495
H            6.13890783927152       -0.14066468822635       -0.06021658930339
H            4.88195351260244       -2.25316480580900       -0.06181540045964
H            2.42089980722030       -2.21895090041361       -0.04816847445774
