92
 energy: -16.242089773847 gnorm: 0.000913455184 xtb: 6.6.1 (8d0f1dd)
C            0.88229691036125        0.54115087650569        0.07115766197943
C            2.22223558908010        0.76162024449664        0.74987592527716
C            2.19022130894390        1.99941128219302        1.63193389923507
Si           2.81518141119922       -0.75077513973668        1.75714716065964
C            2.16507085036622       -0.61135090512571        3.41385140949180
C            1.79686365089325       -0.27853907178536        4.52292833684671
C            1.42267072171091        0.22183498156497        5.78607540788138
C            0.85408404734437       -0.59702402460317        6.73001904294503
C            0.48354623399783       -0.10534521184996        7.97899758530027
C            0.68285954205161        1.21247563175736        8.30697320745615
C            0.29884865128181        1.72495603436901        9.56319727156181
C           -0.01688746010537        2.28895378423210       10.59236812415724
Si          -0.43560642093426        3.42568181917108       11.90528615641245
C           -2.02625629523418        2.77952890717926       12.73731635313165
C           -2.39022680740297        3.47984473775894       14.03339633850636
C           -3.17341479933680        2.77588611062830       11.74306641307445
C            1.04994090346331        3.41512508985009       13.09893491504129
C            1.11009734331165        4.62364828982495       14.01487847383082
C            1.10707782911542        2.10230473504154       13.85905288268811
C           -0.63084875505001        5.16205740733958       11.13520137561562
C           -1.16770506909210        5.07245538886115        9.71624629168502
C           -1.43585454287043        6.12480000159743       11.98813410483938
C            1.27822368728089        2.09771879743134        7.35996940324551
N            1.47604723009163        3.37693921231238        7.71318546476842
C            2.02367740459254        4.14254931484320        6.78309237221718
C            2.36286855114522        3.65454165483865        5.49121797077034
C            2.91716712631092        4.56338641520116        4.53667893639684
C            3.12478151165282        5.86563779001562        4.82382153337362
C            2.80915258795541        6.39408889046909        6.11272451608726
C            3.02216813057993        7.74336402290966        6.43557276591461
C            2.72330232663373        8.21922296892200        7.68512995173032
C            2.20927762567105        7.36543879850852        8.65609088663825
C            1.99260985223657        6.04555902042887        8.36353850632510
C            2.27464231980779        5.53452118824280        7.09229915400498
N            2.18365546487636        2.38782220014491        5.13669459918004
C            1.64396838442188        1.60077667088486        6.08032094450949
C            2.20277054822656       -2.35801599178519        0.92420598240316
C            3.11483068497108       -3.54695515432210        1.16838515975132
C            0.77805746228097       -2.66291585051452        1.35442074803851
C            4.72452023708755       -0.74911531227284        1.83922022960784
C            5.32246170723205        0.64659991851752        1.84259827189040
C            5.19922313018145       -1.54690210766003        3.04205158094379
H            0.60360118957893        1.39911186074500       -0.54384866807044
H            0.09503310370399        0.40619853083929        0.81372336220819
H            0.89018079090932       -0.33747810137408       -0.57509879176028
H            3.00355304032795        0.86374598384056       -0.01642731498365
H            1.43072218949350        1.89759126452083        2.40862244853940
H            1.95297432944175        2.89644247916538        1.05689821578985
H            3.14137949567232        2.16608452536486        2.13635344469891
H            0.69421812100403       -1.63466211500764        6.49088812657688
H            0.03220433181106       -0.76100245733720        8.70403586942992
H           -1.73794377064328        1.74070174371284       12.95720325204162
H           -2.63025544355009        4.52804412326846       13.85946623945632
H           -1.57664807407642        3.44287416665247       14.75781632096539
H           -3.26518909556215        3.02133771541288       14.49799922160786
H           -3.49285126121838        3.79281450686412       11.51477947244927
H           -4.04190520967314        2.24297062834279       12.13510970238790
H           -2.88426099680250        2.30250957057760       10.80286114642292
H            1.89082151230493        3.45965595343568       12.39034831988303
H            0.24641137121349        4.65701406634118       14.67836630201754
H            1.12974968223481        5.55715772421843       13.45058991702771
H            2.00215891088066        4.59950070347274       14.64351260104783
H            0.27968403231330        2.02454111154293       14.56493554064235
H            2.03375764281720        2.00970734795230       14.42892442262558
H            1.04188840939600        1.24788593551237       13.18266696886599
H            0.41681146288733        5.49492142728571       11.10522035078684
H           -2.19932083549231        4.71982173408027        9.71440777235541
H           -0.58595629825273        4.37865077962428        9.10683598990249
H           -1.15249231224278        6.04497264993022        9.22061975278393
H           -2.48952722786072        5.84592685135689       11.99828022678262
H           -1.37596997970910        7.14354349493711       11.60016303054106
H           -1.08767251601352        6.14126335881805       13.02161668893374
H            3.16629447856083        4.17594366338732        3.56474651772522
H            3.53962410720854        6.52663739068847        4.08251770796225
H            3.42583727710996        8.40201292600288        5.68572644385603
H            2.89056826782500        9.25779776652302        7.92011784869501
H            1.98279643788844        7.74417030388199        9.63957653647779
H            1.61299329916952        5.37205327894173        9.11068541690593
H            2.22647807661703       -2.09850213675861       -0.14371045831478
H            3.12772170006119       -3.80997856299601        2.22655946498627
H            4.14120373056180       -3.34669521462435        0.85753618397687
H            2.77294697117525       -4.42686302723816        0.62044210059964
H            0.74463074988192       -2.90386940616298        2.41794901570119
H            0.36980666273911       -3.51752418651781        0.81138819488082
H            0.11193409512210       -1.81504573505166        1.19452625700867
H            5.00766893596602       -1.26265188549212        0.90966245723372
H            5.03051359100984        1.18528704457522        2.74490480439017
H            5.00166615098049        1.23107867580225        0.97928002976009
H            6.41357630976010        0.61081376470170        1.82790964793321
H            4.90706326152149       -1.04865354858701        3.96784003350079
H            6.28637080244053       -1.64685948755026        3.05265528528487
H            4.77018768263296       -2.54878260424729        3.06475926378596
