102
 energy: -18.326655710155 gnorm: 0.000899544784 xtb: 6.6.1 (8d0f1dd)
C           -1.08396785989073       -2.37288120459887        1.07089903911713
C            0.20120710953416       -2.95405248386363        0.50964443744781
C            0.06061712119907       -4.40621609652016        0.08647844360988
Si           0.96386734312206       -1.87092876251427       -0.86353501272042
C            2.43194950789461       -2.70207732088240       -1.44776893752252
C            3.29282876535024       -3.46806701205134       -1.83323802252109
C            4.21751691999292       -4.45779512981379       -2.22528421705087
C            5.34604840292123       -4.13143104745177       -2.93747375574386
C            6.25315221767603       -5.10817596098923       -3.33478890611240
C            6.04798276965005       -6.42946057613309       -3.02337610896545
C            6.94327323596378       -7.44232190341191       -3.42647221308501
C            7.57559926331728       -8.44181801819487       -3.70649639193920
Si           8.06798387193217      -10.14725200825594       -3.91677096031149
C            8.86268881441017      -10.30932940968468       -5.64372787444437
C            9.55086886844447      -11.63726402467455       -5.90123379552591
C            7.85036189702389       -9.96715580676045       -6.72199214915831
C            9.31365490910488      -10.51008051158570       -2.52078192280660
C            9.48557233731961      -11.98745709342009       -2.21748033553778
C           10.63422895386852       -9.81349951751815       -2.79478325404111
C            6.51169056471570      -11.23171137701757       -3.68217758745100
C            5.26308113206862      -10.52181168829708       -4.17811165885199
C            6.64525629529979      -12.62105366443688       -4.27754028043284
C            4.89315012538832       -6.81405317281046       -2.28171183344071
N            4.72777969013295       -8.12327285278683       -1.99270307127472
C            3.63987396381839       -8.36801027821639       -1.32008245812078
C            2.71229838894362       -7.38146263716635       -0.92572621153383
N            2.84036824081924       -6.10994083406101       -1.18378850160089
C            3.96221681739697       -5.81734008049985       -1.87978544318782
C            1.53048697514739       -7.96924386867537       -0.15633159873930
C            2.13586294861923       -8.72186898565860        1.02523649825177
C            1.86743649072051       -8.51849792052991        2.36531620223287
C            2.51730104004514       -9.28794395145712        3.31043873829079
C            3.42980972494226      -10.25282138862860        2.92318715561369
C            3.70374519895856      -10.46120213107769        1.58567826492592
C            3.05605673980134       -9.69634274425517        0.63450235219610
C            3.23246854317940       -9.77209271984258       -0.87911107414495
C            1.84158672453692      -10.00236677691912       -1.46271597831746
C            1.44991999174525      -11.03123729837302       -2.29776042781542
C            0.14286840775370      -11.08303333278840       -2.74106416354924
C           -0.76797096395312      -10.11591103069051       -2.35547780780408
C           -0.38370722762627       -9.08456353452056       -1.52115875911031
C            0.92200002762055       -9.02688885275995       -1.07279962380080
C           -0.21764804737650       -1.57590256257190       -2.33704029167432
C            0.58939405299817       -1.25895374581603       -3.58630519138286
C           -1.16775854053203       -2.73215932153294       -2.59104118623879
C            1.42645960865223       -0.20211326895435       -0.06786073092565
C            2.44935169364346       -0.41421427278560        1.03514990127940
C            1.91197618544295        0.80233518566340       -1.09696093397257
H           -1.44507113535794       -2.95553146124581        1.92065421572987
H           -1.87451945700375       -2.36727106986114        0.32091190570457
H           -0.94789098561474       -1.34353183182518        1.40733599461943
H            0.98675366152850       -2.89489401320766        1.27705895749559
H           -0.74044639645077       -4.53304567105050       -0.64050937093824
H           -0.17359330556529       -5.04773236240612        0.93824945898834
H            0.98027858255102       -4.77633372206218       -0.37025351786125
H            5.52057330546289       -3.09986677653110       -3.19226422172432
H            7.12972566056936       -4.83439670763705       -3.89679984101700
H            9.62135118377662       -9.51361368082726       -5.59716611443517
H            8.83146415820029      -12.45508784880055       -5.91774410880333
H           10.29358567962110      -11.86553687588307       -5.13664375368836
H           10.06144309385481      -11.63752668517036       -6.86619441294328
H            7.08961873764092      -10.74419479727192       -6.80083503887482
H            8.32436824710545       -9.87491083725893       -7.70127455562623
H            7.33945786964316       -9.02675679507394       -6.50572649006358
H            8.81844049636191      -10.02368991139369       -1.66663383112574
H            9.89810039185848      -12.51909545500899       -3.07456402111579
H            8.53632910598154      -12.46004698995984       -1.96037375673150
H           10.16781780412095      -12.14254501849267       -1.37949896574027
H           11.14826898495411      -10.27189131960004       -3.64013779516566
H           11.30370270943693       -9.87195369549680       -1.93433340677427
H           10.48546643211859       -8.75872249956840       -3.03396641887413
H            6.46933185760860      -11.30650556315767       -2.58535060143813
H            5.30080180220787      -10.37786068767431       -5.25802991335609
H            5.15236065656222       -9.53763211655149       -3.72124658788994
H            4.36170518244714      -11.09500415778852       -3.95420644446472
H            6.63082697689527      -12.57767847763495       -5.36670372762355
H            5.81984304838236      -13.26645616229194       -3.97079675247166
H            7.57540706501210      -13.10466901957125       -3.97696471725251
H            0.80743068918827       -7.20456404306110        0.15060351606713
H            1.15899347768126       -7.76272906335773        2.65757540692128
H            2.31321171802547       -9.13344685833235        4.35749124495316
H            3.93291074901618      -10.84499457295239        3.67028468572451
H            4.41547607430368      -11.20651086548271        1.27513449531070
H            3.95979156122656      -10.53309467865678       -1.18839047574373
H            2.16495332860297      -11.77963100535153       -2.59266644275592
H           -0.16899699338921      -11.88287507576478       -3.39287557386745
H           -1.78506511221382      -10.16664885937723       -2.70886483986106
H           -1.08469243518112       -8.32617473696328       -1.21784610670737
H           -0.78712339431076       -0.68976386390219       -2.02242155644286
H            1.15512765936631       -2.13548742286216       -3.90581453865482
H            1.30790055949848       -0.45628720998877       -3.42049394481466
H           -0.05601092214187       -0.96519627171496       -4.41630231815240
H           -0.60994531819851       -3.64509579264080       -2.80272000947954
H           -1.80842016725999       -2.53559431288200       -3.45239786534941
H           -1.81911238852123       -2.92529106313225       -1.73926501929216
H            0.47929564676814        0.14812970124531        0.36588640440948
H            3.36311966300202       -0.85175492468992        0.63020190905764
H            2.07981342574966       -1.08556211748500        1.81173231845807
H            2.71959183299365        0.52858336157380        1.51490523845654
H            2.78423586967829        0.41724095989157       -1.62713940069049
H            2.20309388933239        1.74367905059854       -0.62676936720666
H            1.14191982387796        1.02984488106482       -1.83566217858652
