100
 energy: -18.095354133725 gnorm: 0.000432966515 xtb: 6.6.1 (8d0f1dd)
C            1.18047320165783       -0.01382273524546        0.30741646834794
C            2.59836218537029       -0.33944289225357        0.74679743327554
C            2.87750203189034        0.21203894724426        2.13417579062471
Si           2.92324627068441       -2.21733503761834        0.61854250144722
C            1.47041099616199       -3.10554952842185        1.16308882394075
C            0.80319055029930       -3.82825149865168        1.87719650628822
C            0.29938465395124       -4.71350445535648        2.85326679717099
C           -0.88164786841342       -4.48043661827128        3.51833702562026
C           -1.29129955208147       -5.30819676359266        4.55819709312334
C           -0.52127053642112       -6.37592754444848        4.95629101404530
C           -0.86046584374351       -7.17629980295647        6.06730488759790
C           -0.93434257837934       -7.89901984602346        7.04178152002808
Si          -0.42226819375798       -8.96450371976959        8.38343484412754
C           -0.11133081589642      -10.68386971354136        7.61774074036806
C            0.62471791520986      -11.66470910057085        8.51143343477175
C           -1.40215181802499      -11.26060191150331        7.06586675004270
C            1.19785002280526       -8.18567040270828        9.02121840570164
C            1.62234288814778       -8.68334522201707       10.39068762354024
C            2.30011769338535       -8.31628057530799        7.98419510072326
C           -1.74077846485034       -8.96089409506889        9.76316243234353
C           -3.13076813307014       -8.79331499165324        9.17497825830668
C           -1.65203077368466      -10.16279504118416       10.68511438402371
C            0.69685132229936       -6.65771954539758        4.27882619843127
N            1.45461903302494       -7.69095175701253        4.69791245706159
C            2.59912536935001       -7.87151137753305        4.07170588509560
C            3.42164453916908       -8.98443768312741        4.58956921358641
C            2.76329094931539      -10.11986524167589        5.05847619647689
C            3.43741530454695      -11.12252606781409        5.71514718491526
C            4.79604599261120      -11.00831465908919        5.93392211451002
C            5.47332322835402       -9.90235821526508        5.47346947206214
C            4.81194669358268       -8.89110796286137        4.78977972571545
C            5.60522445225845       -7.76583018402704        4.24352750328210
O            6.38606739264080       -7.13761761708045        4.93201173934363
C            5.47747793026178       -7.51809102057103        2.78905015366498
C            6.61837555073004       -7.55338591794712        1.99907663840766
C            6.53856964178481       -7.40496281354151        0.63322647642320
C            5.30913030012511       -7.21691338730948        0.03265039645392
C            4.17136600746139       -7.15640181302523        0.80325399086611
C            4.22494444507757       -7.29765548035520        2.18893425676678
C            2.99120566731753       -7.05693350033294        2.96609340502789
N            2.25242628431379       -6.05226843500714        2.54334888827271
C            1.10461549907169       -5.82824254711396        3.21478188832799
C            3.36203369714817       -2.68328424171307       -1.18138123583277
C            3.11926323149110       -4.16504369507838       -1.41147087194673
C            2.63196777119157       -1.84039783377531       -2.21115301868161
C            4.38126760855044       -2.67325301672347        1.77449272968046
C            3.87798477342774       -2.95725126658026        3.18094183436802
C            5.23270538719151       -3.82323683229512        1.27033187386487
H            1.00661810259437        1.06362889595216        0.28542325283966
H            0.45811672410439       -0.44835803121349        0.99987397956741
H            0.95571902870043       -0.40832625914930       -0.68329852257930
H            3.32064859682334        0.08282844165649        0.03397308672457
H            2.20256336449016       -0.23317741354458        2.86599127232959
H            2.72593572638532        1.29247890668421        2.16869398333441
H            3.89989474998896        0.01363077608630        2.45749657094776
H           -1.47467206160647       -3.62468022433299        3.24421425583131
H           -2.20643218698027       -5.09969522214575        5.08561434053839
H            0.54167991320342      -10.40575413978721        6.77885068442755
H            0.03329386920708      -11.91461915735073        9.39139507983426
H            1.57889200147130      -11.26504793849684        8.85479738272790
H            0.83152123493780      -12.59840340808373        7.98528693761359
H           -2.07254091641201      -11.55622622649446        7.87302931233401
H           -1.21537892286660      -12.14646702418483        6.45589488862191
H           -1.93057781829342      -10.53284432178097        6.44706906842227
H            0.90317449970741       -7.12834143654672        9.09982305137207
H            1.84742208733691       -9.74898611821528       10.37022134373613
H            0.84247751270867       -8.52453408487022       11.13688231506258
H            2.52031911523887       -8.16883161472511       10.73747294587152
H            2.61272708956423       -9.35494961216634        7.87722354134644
H            3.18324748834106       -7.73727687851653        8.25985606435827
H            1.96842444657973       -7.97092485125492        7.00351694850898
H           -1.47127170526065       -8.05163189737688       10.32043388604678
H           -3.40588109455247       -9.66301361311922        8.57762942190198
H           -3.18720419562878       -7.91888589697260        8.52410451719934
H           -3.88466595984504       -8.67966577930487        9.95627172811319
H           -1.95329389068170      -11.07213524988769       10.16518448173070
H           -2.31169301462327      -10.05182486176998       11.54779553308364
H           -0.63843625346466      -10.31446994995865       11.05811838978035
H            1.70026432437444      -10.18829954123866        4.90514249202379
H            2.90380137112262      -11.98888145909914        6.07036336551814
H            5.32546747510418      -11.78577766443181        6.45997299502013
H            6.53406049150259       -9.80608821836165        5.63098475113999
H            7.57018306090219       -7.70844509896058        2.47783081165598
H            7.43285072957105       -7.44133016982070        0.03289541578657
H            5.24301825043520       -7.10345815752103       -1.03710305402838
H            3.21354330462512       -6.97728063177423        0.34552825817909
H            4.43795707115825       -2.46516009249435       -1.23379319861125
H            2.05554418799016       -4.39443238615308       -1.33485015084155
H            3.63495724098291       -4.78018429794461       -0.67541035543686
H            3.45403278104638       -4.47744979667376       -2.40235457454152
H            1.55642018974366       -2.01101698374235       -2.15306769626011
H            2.94612041955894       -2.09382025233775       -3.22537523184025
H            2.81305422156233       -0.77431173896353       -2.06786897434384
H            4.98310713270693       -1.75387174072921        1.76803064405442
H            3.29504101304406       -3.87919648108259        3.19701786265929
H            3.23609065277174       -2.15955609097949        3.55513922680189
H            4.70342699927841       -3.08471564701990        3.88357102825355
H            4.65218549363598       -4.74422833770079        1.26427569855122
H            6.09436635667519       -3.99444623816072        1.91816619436624
H            5.60622779768402       -3.64963012222936        0.26066181904830
