108
 energy: -19.709402973949 gnorm: 0.000724357073 xtb: 6.6.1 (8d0f1dd)
C           -1.06212691823239       -1.05596224082492        0.87721147934321
C            0.36587217812247       -0.54473566305573        0.80131971093929
C            1.37393442524121       -1.67550977002099        0.89555702672964
Si           0.61126258246966        0.48766493824350       -0.78064134808520
C            0.20101614436539       -0.47452405236441       -2.22755968450051
C            0.08397371829352       -0.81638246302741       -3.38786629041059
C            0.01912099726835       -1.01965902314880       -4.78059156874984
C           -0.33187813413396       -2.23268520942331       -5.31378170309050
C           -0.37654357619769       -2.42492634688307       -6.69421362469955
C           -0.06783678459703       -1.40894241666816       -7.56202592679883
C           -0.10468763865990       -1.61437087315050       -8.95576670072292
C           -0.09563984208937       -1.69990840735341      -10.16802817029033
Si           0.04928023307778       -1.51248598206265      -11.93856927752948
C           -1.63555402525800       -0.87204079280966      -12.56668802258626
C           -1.62832975165486       -0.36284411623485      -13.99629869967460
C           -2.71401537005993       -1.91435498752682      -12.33258207048661
C            1.42683093172762       -0.21561667326921      -12.16490778304425
C            2.00029169619999       -0.15597633228648      -13.56868634708312
C            0.95371351562564        1.13704837219058      -11.66426587467306
C            0.58831614520663       -3.17164856415772      -12.71330922878674
C            0.01389220519110       -4.34122746332869      -11.93323276573046
C            0.28894213827492       -3.27331599746621      -14.19745781673809
C            0.30417892697392       -0.12437905223267       -7.05440447288790
N            0.60957687178610        0.84444686137188       -7.92079801237679
C            0.94461306450810        2.01562343927843       -7.37130903006703
C            1.28798411737768        3.09451788461218       -8.22172717847483
C            1.63163964803760        4.30685680987313       -7.70558457546658
C            1.64675217757084        4.51096812384912       -6.30278282761710
C            1.32464833870891        3.49396875808349       -5.45655136052382
C            0.96873816538079        2.21854741273479       -5.95866790564590
N            0.67059418603490        1.24606547225681       -5.09277818979632
C            0.34232852912338        0.07452038023296       -5.64281120831293
C            2.05105458968474        5.93354685944911       -5.92026232701163
C            3.41312564673974        6.16889137198974       -6.57223514480536
C            4.58272011138753        6.54211447994981       -5.93742899084246
C            5.73356040399744        6.71285914053800       -6.68178501457339
C            5.72058664638237        6.51243812177517       -8.05037042823352
C            4.55609440506487        6.13891940832666       -8.69231213326601
C            3.40009589227893        5.96670034411528       -7.95459019737194
C            2.02633114210555        5.55883257939877       -8.48628157689631
C            1.06157823116071        6.65374064897662       -8.03260064659026
C            0.22956115095454        7.40924746312017       -8.83693629511900
C           -0.58653493786541        8.36309459407215       -8.26114960086608
C           -0.57425754418019        8.56292536816906       -6.89252067840874
C            0.25449226242727        7.81199793567406       -6.08199095168214
C            1.07454689343197        6.85551568067693       -6.65020690909553
C           -0.60538993735539        1.95563804284243       -0.71409735317918
C           -0.37381925004722        2.85028227257688        0.48999816651385
C           -0.65975526703763        2.72693164673895       -2.02317890704410
C            2.44249378571615        1.02207584808058       -0.91348839534226
C            3.24661083034222       -0.07307735468245       -1.59628351000840
C            2.63793363169336        2.34882320681509       -1.62265732830435
H           -1.22908967826799       -1.63969280754624        1.78462761775009
H           -1.28295618194973       -1.70111450456551        0.02548943180530
H           -1.78738041856983       -0.24086226520882        0.86963869125837
H            0.54674778677490        0.17517473086270        1.61180422117118
H            1.29429971266171       -2.33383355450997        0.02941125891360
H            1.20704720451995       -2.28362877515825        1.78662791644686
H            2.39789442005817       -1.30203583735105        0.94082903444042
H           -0.57168128311082       -3.04470752369668       -4.64866808307657
H           -0.65280111035937       -3.38571955707159       -7.09419894341292
H           -1.80173376357623       -0.02514437148512      -11.88401017149745
H           -1.40077971750028       -1.16463929395811      -14.69785988539028
H           -0.89038170271992        0.42582768430493      -14.14319405436712
H           -2.60221988677992        0.04387760916244      -14.27523724224197
H           -2.58496686256131       -2.76425734900174      -13.00307452323560
H           -3.71063606453705       -1.50624954791243      -12.51219656392980
H           -2.68583182011311       -2.29416708411338      -11.30943192207469
H            2.19563318793533       -0.60373588246479      -11.47964555017000
H            1.24456708700848        0.15180447426502      -14.29046481882934
H            2.38648453880968       -1.12529146348916      -13.88768160092063
H            2.81999545731862        0.56227739181485      -13.63073323754696
H            0.18276617784237        1.54667074511920      -12.31763162189975
H            1.77151523923376        1.85938713225409      -11.62869217190328
H            0.52755496500937        1.06018879704743      -10.66192508193232
H            1.67745883469690       -3.13628038011602      -12.56205700282868
H           -1.07193352219478       -4.37407264688191      -12.02780441651082
H            0.24702095673415       -4.26652350647958      -10.86940235845094
H            0.40419622597953       -5.29412596758590      -12.29587673666263
H           -0.78397564515842       -3.35553618955240      -14.37164281224440
H            0.75498722103195       -4.15706356599972      -14.63753054239998
H            0.64749463896783       -2.40048949735023      -14.74442060859004
H            1.27595251189834        2.94710532644649       -9.28507640859177
H            1.33693175560342        3.65375980707768       -4.39499424578977
H            2.06293848563096        6.09647080251239       -4.83488067367114
H            4.58474764805265        6.69473918363905       -4.87196817355132
H            6.64870809869572        7.00406529792958       -6.19226185452219
H            6.62528896606977        6.64812522223602       -8.62048746232390
H            4.53660036750487        5.98076215265610       -9.75678322871641
H            2.01711214585352        5.40428160904148       -9.57289679557701
H            0.22661295393308        7.24589419165252       -9.90076428517467
H           -1.23790567970036        8.95481163485671       -8.88360740118815
H           -1.21652719331276        9.30980051682692       -6.45491185369325
H            0.26983393229923        7.96182104637227       -5.01627494707170
H           -1.55846735700901        1.42107139422543       -0.58886667680096
H            0.59512786645337        3.34546216189182        0.43025190760946
H           -0.39339326945385        2.28432257709126        1.42278410655625
H           -1.13557527570667        3.62927071938663        0.55814079421832
H            0.21881131120994        3.35806966999083       -2.14704130841639
H           -1.53141138364517        3.38294717691190       -2.06470713073869
H           -0.70496405522097        2.05496572398574       -2.88236926291880
H            2.74883871474718        1.11445918719003        0.13824147195231
H            2.95414886354664       -0.16145219431150       -2.64382463809978
H            3.08798388513914       -1.04781053131664       -1.13494835817337
H            4.31700009944419        0.14050440638738       -1.57200711124004
H            2.25231667308222        2.29325876579233       -2.64107460019400
H            3.69564221749397        2.61037133289401       -1.68976307408385
H            2.13174414000083        3.16686614238029       -1.11078934240490
