86
 energy: -14.849274533214 gnorm: 0.000595040068 xtb: 6.6.1 (8d0f1dd)
C            0.94163732654684        0.24993590002148       -0.18221412439239
C            2.33263877195989        0.31070473564751        0.42655103615522
C            3.23003089564353       -0.76974968526683       -0.14969004023742
Si           3.05392738592631        2.07145268088523        0.24603658370979
C            2.53353379876668        2.80190754492040       -1.29707785148483
C            2.20389262826627        3.48040784413599       -2.24966863579950
C            1.83665896591573        4.35170699379308       -3.29411932823010
C            1.48544692692510        3.86224161464781       -4.52582985896410
C            1.12629041113997        4.71808834518534       -5.56620185969976
C            1.11290576399331        6.07743039088498       -5.39034186037507
C            0.75487557229141        6.94830709523652       -6.43832394804776
C            0.47019243178722        7.81788729835964       -7.23805502029884
Si           0.16015162801141        9.39792171802028       -8.01107685801940
C            1.80797814823828       10.35403535249670       -7.89460814999890
C            1.84176301587395       11.65827565482599       -8.66969431879194
C            2.21002902506631       10.53447988125007       -6.44108176951016
C           -0.34522580427192        9.05446894753210       -9.81599475784084
C           -1.06741476166958       10.21360396305318      -10.47815140772586
C            0.85227751442151        8.57806564049295      -10.61815430282821
C           -1.27082184652456       10.23463319473855       -7.06266801909498
C           -1.26822011115750        9.81897478923632       -5.60068831777580
C           -1.30313296202478       11.74285978349883       -7.22483973173337
C            1.46889336862643        6.63871447554194       -4.12378352563825
N            1.44570950611133        7.96651758853484       -3.98308744528818
C            1.79486096643377        8.41566462302085       -2.77421226973689
C            1.80255605061239        9.81028456871035       -2.53230659199883
C            2.15184808259781       10.31677379122578       -1.31871041272815
C            2.51497448244190        9.45745820746856       -0.27472264056387
C            2.52138997893996        8.11040032017353       -0.46647975765771
C            2.16414309969835        7.54175726208377       -1.71239437596109
N            2.18494386269559        6.21277687435318       -1.85152776690882
C            1.83689145119118        5.76284950511186       -3.05957563409147
C            2.41966447192740        3.17470763230023        1.67246372768492
C            2.46683594982623        4.63893293246880        1.26610285815252
C            1.03273767924465        2.78852956246982        2.15457795956574
C            4.96294797666913        2.00273025976321        0.29546194660881
C            5.51281515269565        1.63030971276515       -1.07150582890505
C            5.59022387637041        3.28951923209414        0.80132186034709
H            0.46822676799165       -0.71743152801648       -0.00334051196300
H            0.99171353835946        0.39661425861854       -1.26226318663155
H            0.28478587736581        1.02259496407979        0.21777613184580
H            2.27294081096547        0.18514697957738        1.51688769218582
H            3.32522814595173       -0.65350827235058       -1.22989186609549
H            2.81972650783455       -1.76484187613625        0.03309334337368
H            4.23143620185385       -0.74241595130896        0.28210611372369
H            1.49139384285891        2.79716766890567       -4.68407369921175
H            0.85462587183621        4.31422190651844       -6.52661687450196
H            2.49381615792870        9.63606034091891       -8.36887752328133
H            1.15091687877619       12.38592734428925       -8.24552598459026
H            1.57045887349063       11.51613195252614       -9.71592211492873
H            2.83690296207843       12.10652256219597       -8.64551186773414
H            1.55760851812824       11.25305928414099       -5.94479402120354
H            3.23221432030380       10.90697131722843       -6.35082953392563
H            2.14590362957086        9.59480219972494       -5.88880541985783
H           -1.04928632178798        8.21904450412726       -9.68407201694299
H           -0.41883265886880       11.08559519628877      -10.55856769115006
H           -1.95332848131428       10.51155324192904       -9.91513731967621
H           -1.39010478105276        9.95399344303561      -11.48825471828185
H            1.56821389932807        9.38734681246385      -10.76549079696844
H            0.55597725377871        8.21950721297828      -11.60594752869540
H            1.37521750654077        7.76618955281115      -10.10870578228042
H           -2.14707379288177        9.79464542522336       -7.56145991775037
H           -0.37675606561396       10.18830761383452       -5.09392671284765
H           -1.27586167241817        8.73321769457677       -5.49005404631548
H           -2.13558661745114       10.21562493033335       -5.06977950805088
H           -0.47362150544438       12.20701679452997       -6.69120449854942
H           -2.22353748520879       12.16703126617632       -6.81877517857621
H           -1.23284734456057       12.04002898350318       -8.27200846184220
H            1.52438783639292       10.46701272464002       -3.33757367746504
H            2.15083254629177       11.38244441360016       -1.15741159171454
H            2.79063746963541        9.86759230712536        0.68314367727206
H            2.80258821842682        7.44623532847397        0.33153826974332
H            3.14796581863251        2.98114716141783        2.47263672513466
H            1.76569485228182        4.83297117778628        0.45290508617220
H            3.45469256178602        4.93540338461237        0.91399459441956
H            2.19585813292398        5.29392299644462        2.09633438516585
H            0.29569359221065        2.94720348558033        1.36654860309610
H            0.72719095011198        3.39465001434719        3.00964268030770
H            0.98122266302489        1.74219132718508        2.45839836949707
H            5.16007024807403        1.19531185535421        1.01476714396499
H            5.30040281814625        2.41904237033853       -1.79488355566543
H            5.07033417879707        0.71154753675802       -1.45636126085769
H            6.59559650281752        1.49359684115052       -1.04317913531155
H            5.37480710135146        4.11362800525035        0.12007136086436
H            6.67627983901468        3.20120050538945        0.86889067581185
H            5.22041315072652        3.56416651071098        1.79009158835425
