50
 energy: -9.118693379067 gnorm: 0.000956540556 xtb: 6.6.1 (8d0f1dd)
C            0.89754535952960        0.13261305261606        0.01197388053911
C            2.35894830635908       -0.23448086977219        0.18972415144159
C            3.01590741728597       -0.62216922942523       -1.12161364030872
Si           3.30215697672052        1.20102177147654        1.02284279477589
C            4.76451221257061        0.72128567904269        2.14433121908867
C            5.79676661070801       -0.08903963480223        1.38546506183191
C            5.35109116398526        1.97286902361118        2.76964432240637
C            2.15410008810596        2.30151170220152        1.94893734830148
C            1.37573552323460        2.08450952971890        3.05692159506172
C            0.59037970517536        3.11593830962275        3.56535298384296
C           -0.20868933619001        2.90343602480121        4.69747613120103
N           -0.87091471929490        2.72422288663527        5.63566948539712
C            0.61468173716225        4.35767800069632        2.93099526916820
C            1.39919471236666        4.57668217183449        1.82018285189285
C            2.18744242913682        3.54361100208341        1.30992496583014
C            3.09353034298743        3.64489783526947        0.13130858409644
C            3.30011542392539        4.79088458180762       -0.64057946605522
C            4.17576945807074        4.75908631762324       -1.70002007835916
C            4.88064911829989        3.59368978707702       -2.03442963357563
N            5.77124241060092        3.56838610471660       -3.12266943418125
C            6.10743781568044        4.77818597104143       -3.87051539621048
C            6.38823956659924        2.32292032155926       -3.57641468685443
C            4.67015207724717        2.44987602285802       -1.25461732913882
C            3.79640655538943        2.48298137369859       -0.20190939107236
H            0.32989327999255       -0.68758046051267       -0.43127358467284
H            0.79820786982676        0.99774871011252       -0.64529208629184
H            0.42936946513910        0.38968444246069        0.96371287695450
H            2.45459564577713       -1.05387441151633        0.91616967022762
H            2.94671834877966        0.19564627980787       -1.84025401157562
H            2.53300586157353       -1.49313923572691       -1.56847090669280
H            4.07361669936913       -0.85492916494724       -0.99079266723569
H            4.29398996941241        0.09948686648927        2.91934821952163
H            6.21890468720315        0.49595306354395        0.56734835971941
H            5.36150444737827       -0.99301986591298        0.95662307522251
H            6.62133558050381       -0.39084804161920        2.03384866300370
H            5.76848292840567        2.62544337246029        2.00114723925787
H            6.15206835266515        1.73298104277131        3.47139440352685
H            4.59176843484106        2.54488202966292        3.30645572466378
H            1.37240272352068        1.12090710194869        3.53441887677295
H            0.00562884754346        5.15147133476387        3.32872360097552
H            1.40916758354691        5.54087654473808        1.34428335004975
H            2.77112818234758        5.69574222306298       -0.40017372593526
H            4.31800583654108        5.64427790364522       -2.29361308041299
H            6.37092871892236        5.58268676840328       -3.18596319592104
H            5.25848632028157        5.08934915337657       -4.47747450515889
H            6.95833561655229        4.60617062784949       -4.52756444060393
H            5.63211240416335        1.54731235775997       -3.68641067389939
H            7.13548821967709        1.99359648784244       -2.85626941402334
H            6.87305529765940        2.45636842802460       -4.54200815374520
H            5.20291772275020        1.54256870550275       -1.46927520284638
