64
 energy: -12.665856615900 gnorm: 0.000446956318 xtb: 6.6.1 (8d0f1dd)
C            1.24098564566625       -0.43792925186960       -0.19946473264118
C            2.74686515070799       -0.52666094704175       -0.03471370443631
C            3.48758118305709       -0.00225677492035       -1.25103976345345
Si           3.28986176735066        0.40134918804855        1.54226284853596
C            4.82671794094766       -0.27540873463652        2.43991314661028
C            5.99634525017603       -0.42698681747961        1.48687610396746
C            5.15027358773177        0.61543609754742        3.62433104328562
C            1.88769125197305        0.57593764518718        2.72265584229083
C            1.19579185160603       -0.34659441660974        3.46490033789370
C            0.14620627851337        0.06645480981958        4.28149273113134
C           -0.56924191663719       -0.86633397745418        5.04541187473895
N           -1.15991001180348       -1.64320198508053        5.67685189475295
C           -0.18051035827993        1.42132717479747        4.32687907662030
C            0.51518442739536        2.34840650299207        3.58292360012503
C            1.56741801651643        1.93554000640968        2.76410630551126
C            2.41401513989681        2.82989676790275        1.92393550698292
C            2.26681150171534        4.21360718852209        1.80147365907045
C            3.12912721293893        4.92827402568355        1.00303610862283
C            4.16821230462152        4.30093094595319        0.31015429090064
N            5.06421738722735        5.04873410277050       -0.51462638675585
C            5.34496740003922        6.42834563101718       -0.23231322878434
C            5.49052560640448        6.87738890228666        1.07774339075130
C            5.76408694127690        8.20099800404999        1.33960733810843
C            5.90095423265282        9.09909808849139        0.29912271732456
C            5.76541022377957        8.66765026297151       -1.00598556478225
C            5.49141370175531        7.34474535678385       -1.27030979107822
C            5.72320023903934        4.41163095633513       -1.62120676422397
C            5.03523977208455        3.53020829017031       -2.45136348957744
C            5.67767094648547        2.90174633602076       -3.49399676734316
C            7.01625717379390        3.14713713508916       -3.73062362772448
C            7.70990144477061        4.02622538497066       -2.92169716683386
C            7.07018681190577        4.65412501000085       -1.87694581629407
C            4.31182632878574        2.91887561028719        0.43456305409656
C            3.44625270229428        2.20528551545374        1.21808485648587
H            0.90094150396288       -0.98901531528825       -1.07806841528255
H            0.93055042704330        0.60111877742619       -0.31895370149019
H            0.71725919330145       -0.83728022469499        0.67084214742348
H            3.04166125137434       -1.56618910271494        0.16712720892571
H            3.20909589640890        1.03320252913022       -1.45009629119160
H            3.25113924751481       -0.58267913934843       -2.14462290070626
H            4.56892938092831       -0.02813392286181       -1.10938498857047
H            4.49875837782356       -1.26387214966928        2.79187067132765
H            6.28573922035018        0.54074514901410        1.07550533068208
H            5.74914876294005       -1.08177259268292        0.64969029033321
H            6.86959469037479       -0.84475824388958        1.99107242119638
H            5.43068568789532        1.61427353045573        3.28665249342943
H            5.98092292663753        0.21788716507566        4.21035937647958
H            4.29024649851383        0.72475545495107        4.28784410049981
H            1.46255803130629       -1.38725708320937        3.41788814431520
H           -0.99236848932357        1.73495062438350        4.96075079731926
H            0.25450421091809        3.39050704462981        3.63229157703242
H            1.47559801820716        4.71414023007289        2.33045620226624
H            3.00395841829557        5.99103905475882        0.89310444371721
H            5.39682994794626        6.17015172620712        1.88324218162325
H            5.87334419584901        8.53656712774657        2.35793317357710
H            6.11467403784017       10.13516608163174        0.50520951912981
H            5.87279961478771        9.36760704496736       -1.81842355661821
H            5.37810331613233        7.00212845470559       -2.28401018749957
H            3.98929362862418        3.35551701224309       -2.26915229057659
H            5.13523196617969        2.21833892061707       -4.12670063327076
H            7.51882553548443        2.65475451785609       -4.54703027242707
H            8.75397311506675        4.21900996015070       -3.10692527164661
H            7.60608093900337        5.33170719596840       -1.23544312039801
H            5.10931331221517        2.41558813790522       -0.07979737346532
