55
 energy: -10.396687209388 gnorm: 0.000739108210 xtb: 6.6.1 (8d0f1dd)
C            0.69847313381626       -0.10036410329912        0.20882860167062
C            2.16463761035158       -0.38747404760685       -0.05421369499992
C            2.43718606494816       -1.85524374766509       -0.32245894768333
Si           2.84385090185116        0.68780056683148       -1.47603112798369
C            2.61189590269521        0.03540793659213       -3.25089024087053
C            1.14218599421256       -0.08762465851954       -3.60303452502293
C            3.36703476032667        0.92867970372564       -4.21779974507972
C            4.62279054259422        1.05453447138816       -1.18241773803027
C            5.72579568032644        0.24504571917628       -1.13545385241246
C            6.99616015989940        0.78962735535676       -0.91545441639539
C            8.13816611718568       -0.10575128416490       -0.87207407858489
C            9.43947157837858        0.20134738377529       -0.66708535037654
C            9.90997387108058        1.49778577525427       -0.45464294740535
N           10.24115124127072        2.59968364451612       -0.28374897897848
C           10.36801311197169       -0.84246573555255       -0.66810660020867
N           11.11724352524346       -1.73274105635356       -0.67448903211161
C            7.09230139176476        2.17796184331055       -0.74906011724764
C            5.98623709891295        2.99096000340142       -0.79996258374850
C            4.72285746721942        2.43925498762700       -1.01987493174601
C            3.44744009169090        3.19986456293671       -1.10946430721781
C            3.31656711263863        4.58599111759285       -0.99029529986422
C            2.07938164019933        5.17308912722248       -1.10080283471304
C            0.92392092641055        4.41211067163002       -1.33334023415487
N           -0.33748295304439        5.02063545050076       -1.43916333757327
C           -0.48999419447891        6.47416061409957       -1.46797913997532
C           -1.56351573076357        4.23064022061016       -1.53643891748702
C            1.06280133081959        3.02349481621510       -1.45386799316291
C            2.29537245015154        2.44060724331931       -1.34180018570736
H            0.32751562329353       -0.67117165439152        1.06169023423852
H            0.08949205874795       -0.36775925512160       -0.65472086899158
H            0.52948906680548        0.95749646711487        0.41597200956771
H            2.76515478818914       -0.04940789323293        0.80254627548546
H            1.87118897175640       -2.20102236381712       -1.18798369626959
H            2.15068211816146       -2.47680277631271        0.52756617586698
H            3.49366552178090       -2.03412947839035       -0.52851668202664
H            3.07647386983075       -0.95997736583326       -3.22068986971307
H            0.65827881317317        0.88915969251730       -3.57823078159562
H            0.61312548016971       -0.73588185737666       -2.90354204912921
H            1.00591209823220       -0.49628119278488       -4.60565373447143
H            2.95112987404157        1.93702451015202       -4.21161427195366
H            3.30891753194631        0.55234648070140       -5.24047474448364
H            4.42140678447824        1.00920844714888       -3.94766774760813
H            5.61219647461164       -0.81511636388088       -1.27313479882340
H            7.91636955757565       -1.14890624626475       -1.02181822915362
H            8.05304402974445        2.62506738114881       -0.57656784080875
H            6.08817940870395        4.05378500641439       -0.67157190040080
H            4.18906727451772        5.18828297312335       -0.81109834210355
H            1.99057860209229        6.23934980409325       -0.99531797054096
H            0.20526801208056        6.91057006751115       -2.18260949830141
H           -0.29459961621225        6.88878748332495       -0.48075765653928
H           -1.49758076281023        6.75458368460554       -1.76860480720965
H           -1.57600452007223        3.46130877301543       -0.76692771226497
H           -1.62586426359207        3.75771482185561       -2.51428587303596
H           -2.44207569683751        4.85696518086695       -1.39785100655138
H            0.20492207192646        2.40835709189656       -1.64992205611091
