76
 energy: -17.264040458547 gnorm: 0.000694349987 xtb: 6.6.1 (8d0f1dd)
C            0.72119590793829        0.09959200753559       -0.19446301345629
C           -0.49448649772254        0.08924820877482       -0.07279732743655
C           -1.89666809069352        0.07886593762614        0.05994768194454
C           -2.58950196270727       -1.13612658672829        0.20186907364294
C           -3.95343922903325       -1.17144226624873        0.33104020550356
C           -4.67906880055312        0.02731266461229        0.32180246887317
N           -6.05769914546192        0.14406228689650        0.44469359268183
C           -6.42874865283027        1.37184598584686        0.40177903306344
S           -5.14249273259666        2.54123313870687        0.20445000023986
C           -3.99155037754104        1.23870122552318        0.18014923789913
C           -2.61138207021975        1.26429444933650        0.05078713658005
C            2.12090634785991        0.11460745457871       -0.34173009238254
C            2.73256439671064        0.99309413823705       -1.23236540809978
C            4.09882752069322        1.00851720185245       -1.37848090558762
C            4.90422864038477        0.14516670755806       -0.63933514798148
N            6.32990801810077        0.16194842239412       -0.79299690220037
C            7.00567883600040        1.40823400110233       -1.00290302162026
C            6.55893480824742        2.57041545205582       -0.37861789816240
C            7.18026929219025        3.77460466128777       -0.60632658144184
C            8.27243972248913        3.86180023591896       -1.46547953147713
C            8.88884437445611        5.10252305478097       -1.71447502196534
C            9.39221774611458        6.19204486538291       -1.94341310300003
C            9.94241380627802        7.45850207431862       -2.22228628230440
C            9.47081039609702        8.60134447029019       -1.55254993861183
C            9.98102684799370        9.84621217985898       -1.81442489734626
C           10.99521980803083        9.98939627664251       -2.77076415062258
N           11.60219536240196       11.18310607129875       -3.14004863848376
C           12.49555781529860       10.99415295372848       -4.04187573047469
S           12.70940540448163        9.33513865651459       -4.55491095125654
C           11.46699463214733        8.85278297754055       -3.43877576272954
C           10.94541491966576        7.59723528214957       -3.16617295405103
C            8.72563786625398        2.69835799781294       -2.08209471931891
C            8.10452116134438        1.49332319607588       -1.85466204426546
C            7.06607480425134       -1.06687605363615       -0.75808148626765
C            6.51525611570905       -2.23876805545655       -1.27106581441085
C            7.21182922914417       -3.42230521173724       -1.22530923059446
C            8.48547386663286       -3.47866648033359       -0.66570918096668
C            9.18855513485557       -4.69689689802742       -0.61042747772927
C            9.77494908590016       -5.76720428850100       -0.55159213593973
C           10.42392401891219       -7.01519416015979       -0.47553046151641
C           11.68960632514553       -7.12641051998558        0.12636579793740
C           12.33433314884150       -8.33239088521376        0.21962557606628
C           11.72281924560561       -9.48398515738364       -0.29411862170250
N           12.25451584771209      -10.76713590122903       -0.26933499850133
C           11.46005949137031      -11.61324042395495       -0.81720733333267
S            9.96174663410293      -10.95134797137565       -1.43221955491281
C           10.46266974147889       -9.37582528444212       -0.89472127522368
C            9.81900126626839       -8.15109009210761       -0.98582878348116
C            9.03861770286396       -2.30625784307377       -0.15711928140360
C            8.34218781281207       -1.12191399627981       -0.20256414398926
C            4.29243620979978       -0.73413700183066        0.25117216257493
C            2.92595477087306       -0.74846288740910        0.39742368655060
H           -2.02412084593593       -2.05211495736771        0.20754262631473
H           -4.48169459080409       -2.10171131963947        0.43985529839562
H           -7.46191867177787        1.65626312249800        0.48207347153830
H           -2.10087279037332        2.20415472174882       -0.05652260284003
H            2.11709979149167        1.66190749739490       -1.80939973083435
H            4.56391663144901        1.68231008342565       -2.07649599531236
H            5.71794974469910        2.51002083071019        0.28962745740280
H            6.82431003426338        4.66919479068576       -0.12462605472067
H            8.68975521071458        8.48235462269151       -0.82137453757902
H            9.61813753405562       10.71925616867061       -1.30193142096240
H           13.07045438178908       11.80471725338237       -4.45106073732000
H           11.31895039162411        6.73646617933861       -3.69075926991292
H            9.56866745440429        2.75762780746662       -2.74898697229608
H            8.44852787792045        0.60194025878793       -2.34894444655627
H            5.53507097564106       -2.20152288976029       -1.71288277152795
H            6.77754557007946       -4.32385920949350       -1.62234308026799
H           12.15110126685402       -6.23705810540151        0.51993289439032
H           13.30213775032297       -8.41573382742059        0.68098626050683
H           11.70386961618417      -12.65738757450144       -0.88989023600642
H            8.85122260764570       -8.08790688429664       -1.44958764495073
H           10.02239762173705       -2.34166650962705        0.27861888470031
H            8.76978095821010       -0.22323440457710        0.20587820232130
H            4.90917093438170       -1.39672469505046        0.83271822876780
H            2.46094402153902       -1.42889923050488        1.09011632765931
