69
 energy: -13.945337791156 gnorm: 0.000343690736 xtb: 6.6.1 (8d0f1dd)
C            0.47961703930484        0.06610429048569       -0.08272047652230
C            1.93738361547843        0.46087733428751       -0.21878429290763
C            2.77695601107969        0.01805771615473        0.96510831532328
Si           2.67325631464637       -0.24598454030400       -1.82574165268448
C            1.85349629402707        0.31516457879409       -3.44991774405418
C            1.87505676778749        1.82735742528011       -3.56385427435256
C            2.52457466865398       -0.37086158455627       -4.62477786717182
C            2.79374414705867       -2.08027408275446       -1.74243497763510
C            1.83736949913068       -3.05945969203841       -1.72659328703467
C            2.20523453538346       -4.40815728733815       -1.65487831736986
C            1.15889070036479       -5.41404765906036       -1.64034472615323
C            1.28800498028595       -6.75970948384629       -1.58362501437169
C            2.51407428523475       -7.42354959123831       -1.52891540090775
N            3.56413199661222       -7.92230256334006       -1.48451563700483
C            0.12266824123301       -7.52985394298487       -1.58076896772043
N           -0.86501111654529       -8.14525416000715       -1.57983369426550
C            3.57288351893198       -4.71066397049729       -1.60116109758570
C            4.53282462539229       -3.72809163536993       -1.61982411305489
C            4.15701894454904       -2.38583914047648       -1.69305190140818
C            5.08858593835104       -1.22508641020350       -1.73744727951102
C            6.48230381739375       -1.29399254704537       -1.66519342818849
C            7.22972355905792       -0.14084502077802       -1.71247896095980
C            6.62650547046463        1.11416153179176       -1.83805552177643
N            7.40998770304041        2.30765729460458       -1.88102444858020
C            8.75172496047596        2.28490497941732       -2.39175696778431
C            9.08276446470965        1.51295025157056       -3.50242149317509
C           10.36953620684625        1.50174351343879       -3.99086489322484
C           11.34813909677656        2.26284135464664       -3.38229650705537
C           11.03426997489959        3.03780075415863       -2.28317258185298
C            9.74849775432648        3.05038358379500       -1.79241802340330
C            6.85173733381276        3.55380684783258       -1.43525677851125
C            6.05072710115871        3.61315832483031       -0.29750766693553
C            5.50917743947292        4.80826069773034        0.11801659902547
C            5.76049002715275        5.96625643671681       -0.59137423605766
C            6.55826822313239        5.92491587768224       -1.71793987817766
C            7.10008158397315        4.73092728263905       -2.13626741925771
C            5.23449347535770        1.17942390655381       -1.91121298106987
C            4.49016173391504        0.03291733274308       -1.85917991813464
H            0.02308927178753        0.52042610298139        0.79824786907638
H            0.38300431470677       -1.01538810893770        0.01825362869253
H           -0.10029404641910        0.36770557344169       -0.95647691662817
H            2.02330667165266        1.54821476222280       -0.35292883908631
H            2.74510328132631       -1.06699261652195        1.07227181331335
H            2.41643694383782        0.45420231010773        1.89821718935262
H            3.82347115172432        0.30254349316255        0.84145548967665
H            0.81839834269617       -0.04003042999886       -3.34934437479602
H            2.90015382512981        2.19296884280684       -3.63078863839180
H            1.41316468884102        2.30129596756435       -2.69622565385026
H            1.34567532886580        2.16832512145775       -4.45513612584992
H            3.56957776732648       -0.06730077881074       -4.69944827463283
H            2.03752392306658       -0.11805940898882       -5.56808007836220
H            2.50720912967063       -1.45674205391060       -4.51596585468992
H            0.79842507459378       -2.78726764206460       -1.77542633597066
H            0.15115954672266       -5.03654076646766       -1.68057954504075
H            3.88691046951879       -5.73587579485318       -1.54703620991641
H            5.57572125757237       -3.98790593127822       -1.58193395405272
H            6.96409023342706       -2.25002384831309       -1.56529805237811
H            8.30137873458372       -0.19214655991422       -1.63542231027751
H            8.31284062073163        0.93345574384802       -3.98102440606222
H           10.61330531195691        0.89942565559868       -4.85060305372965
H           12.35531026407218        2.25297887136629       -3.76553162509306
H           11.79733300900343        3.63257431163954       -1.80847757151924
H            9.49778332021185        3.64689981645667       -0.93277963066182
H            5.86904820160896        2.70968619593920        0.25793379868928
H            4.88968454498884        4.84067547755133        0.99922767848615
H            5.33621986956450        6.90163481488769       -0.26513937864862
H            6.75581275313651        6.82847357899010       -2.27106451055953
H            7.71567473091313        4.68940318817093       -3.01772083044901
H            4.74657053024528        2.13116610857483       -2.01001778512476
