51
 energy: -9.067985649765 gnorm: 0.000603501416 xtb: 6.6.1 (8d0f1dd)
C            0.76367498308122       -0.00620361090513        0.39206904694401
C            2.26426542462907        0.13610650653709        0.22523556430946
C            3.04547059430312       -0.66098390803742        1.25260406521202
Si           2.79845256926074       -0.38672806377058       -1.52496564228980
C            1.90756262351489        0.47045741735688       -2.97217437324777
C            2.06308643717196        1.97582223452881       -2.87694347628371
C            2.41609593483554       -0.08862038115219       -4.28736107597820
C            2.73795298783956       -2.21585501966778       -1.71443606802979
C            1.69404839079567       -3.10360205046172       -1.70854788965300
C            1.94626816002246       -4.46527476607097       -1.86981427749603
C            0.86543433068922       -5.44166123497301       -1.86825695574727
O            1.00515081185155       -6.62788867860539       -2.00566925756286
C            3.25991084715681       -4.89648034462424       -2.03591710835113
C            4.30806435631484       -4.00491105790253       -2.04614764519217
C            4.06015153481590       -2.63951957788179       -1.88567440560564
C            5.09450474767731       -1.56806584413365       -1.88023969843328
C            6.47024607838424       -1.76353071659981       -2.02602972244236
C            7.32618262494967       -0.68902585435172       -1.99104685503070
C            6.85531307330777        0.61988931004429       -1.80794356598572
N            7.73882145587011        1.71170055674418       -1.77118373019849
C            9.18905756540573        1.52912106916142       -1.79509873679115
C            7.25052750882817        3.08923385723037       -1.72861584437315
C            5.47494203109453        0.80845003146469       -1.66231766289833
C            4.62502820646906       -0.26263922812808       -1.70238154171638
H            0.43512301919888        0.34765273179481        1.37077925523873
H            0.46485095018252       -1.05134966210585        0.30333518096174
H            0.22037927350058        0.55670464051632       -0.36872188260061
H            2.55083063218203        1.19604105264262        0.27433436382021
H            2.80748900497898       -1.72291804784521        1.17477593933760
H            2.81170913455410       -0.34271795677666        2.27015104999736
H            4.12202935706686       -0.55664101949399        1.10409223691035
H            0.85505464768170        0.18935725512985       -2.82635784000317
H            3.10925920947796        2.26181384330002       -2.99246438026184
H            1.72437410357524        2.35337610995298       -1.91052993836314
H            1.49448252474328        2.48658309596665       -3.65619990236975
H            3.47520085676065        0.13946300984682       -4.41640358314093
H            1.87922758564691        0.33530942925623       -5.13797395135713
H            2.30927344004461       -1.17434989660680       -4.32737652224544
H            0.68654794365020       -2.74960956474349       -1.58404592574064
H           -0.14572306261275       -5.08448388720671       -1.73424598030372
H            3.43636504302714       -5.95166355576256       -2.15839826339077
H            5.31673634899405       -4.35363560655011       -2.17714077998966
H            6.85345011003804       -2.75840520242676       -2.16552587228611
H            8.38166653317602       -0.85173748403339       -2.11521961010495
H            9.48684404125061        0.78817591307031       -1.05550848708990
H            9.70317501716536        2.45939860184862       -1.56207673230378
H            9.50703100487006        1.19691934716765       -2.78141828278564
H            6.49899053630621        3.24456278808966       -2.50060261694560
H            8.05924842294957        3.79664747989039       -1.90149320628573
H            6.81065768875238        3.29914078909222       -0.75532352130100
H            5.07461335457412        1.79139515019651       -1.49892389055474
