65
 energy: -12.614238083122 gnorm: 0.000750961988 xtb: 6.6.1 (8d0f1dd)
C            1.63344106909779       -0.02688304909436       -0.44726087610817
C            2.86680372770528        0.45324842829453        0.29459795474319
C            2.59817583483610        1.69496453341735        1.12245667869304
Si           3.54561121217041       -0.96532975331985        1.36935535329309
C            5.06753920777149       -0.57388296104814        2.45227441932811
C            4.64941434647134        0.07513946239356        3.75840664030299
C            5.88708113285627       -1.83137330116456        2.67399341305786
C            3.82460784156304       -2.46263142427893        0.33438919961943
C            4.71679012202328       -2.72358228943113       -0.67257869252808
C            4.71957176609932       -3.97689301401253       -1.28377440815839
C            5.65466364301240       -4.29638379925752       -2.35342530256677
O            5.71950651655261       -5.35175036341058       -2.92582494310546
C            3.80902193447376       -4.94092252035994       -0.85799429893780
C            2.91076005614011       -4.67792591437231        0.15074165283523
C            2.90609350990261       -3.42464301224247        0.76702956889597
C            1.98575619123266       -3.00087758974277        1.85875932281931
C            0.94191365749148       -3.76374815454025        2.38865854984611
C            0.13797076492447       -3.23813604124729        3.37288765260699
C            0.34307076794135       -1.94685334266881        3.86795372242298
N           -0.51451108901457       -1.39322136383401        4.86736770027251
C           -1.18236261274543       -2.24613311727734        5.80997306568249
C           -0.53166192462890       -3.34489889475908        6.36572854548882
C           -1.17726457659199       -4.16174689328650        7.26632003375737
C           -2.48257358161956       -3.89466731088608        7.63083623320802
C           -3.13946497816448       -2.80497686592375        7.09289295543368
C           -2.49601769171982       -1.98683214003967        6.19205060260693
C           -0.71297073905213        0.02773132199442        4.93837194749941
C           -0.82273761898365        0.79414857194982        3.78039346143293
C           -0.99016618175562        2.15840707597736        3.85371901527341
C           -1.05813757143261        2.78211385517757        5.08414678747110
C           -0.96109611018552        2.03476449919928        6.24175692821930
C           -0.79103936188837        0.67058373706221        6.17092730858391
C            1.39501814658318       -1.19341832899227        3.34608688453072
C            2.19039187908059       -1.71275002004446        2.36190326169825
H            1.25809499034282        0.73253330084985       -1.13580554115489
H            0.83181026484713       -0.26231743304507        0.25466786639719
H            1.84029417055680       -0.93191962314216       -1.02210102735308
H            3.68263979923758        0.64424790427372       -0.41686543532390
H            1.85038678193449        1.49195800031463        1.88973225568604
H            2.22105926307033        2.51175490584151        0.50434540159511
H            3.50108500720887        2.04642452031459        1.62366844946700
H            5.63471046763356        0.14123141336894        1.83974932614758
H            4.07089039161264       -0.62333803520267        4.36447819864403
H            4.02798703006526        0.95607071088695        3.59240208052100
H            5.51560922630004        0.38145842274939        4.34768267489135
H            5.30355070533412       -2.57692214599600        3.21580809978242
H            6.78613140484543       -1.62558378630438        3.25770158959825
H            6.19563012899166       -2.28176692527060        1.72912659828846
H            5.41091709483658       -1.96480772471094       -0.98629372090482
H            6.35323008906315       -3.53377590880070       -2.66706720738624
H            3.82505752558727       -5.90311243213495       -1.34103389497311
H            2.21364898488627       -5.43265900225483        0.46805574547167
H            0.76395779404644       -4.75617533357587        2.01473801085992
H           -0.68140222598280       -3.81560285072945        3.76323404717806
H            0.48926557716874       -3.54009973876553        6.08750860342425
H           -0.66333951253909       -5.00999576025549        7.68823863452946
H           -2.98769046940883       -4.53585022358636        8.33465092655953
H           -4.15772358317741       -2.59576416349124        7.37739368326951
H           -3.00353059363715       -1.14011814216715        5.76367929090706
H           -0.78236534036601        0.30121713130449        2.82467502094786
H           -1.06912145848411        2.74084046588700        2.95033395523411
H           -1.18789565669209        3.85048084082837        5.14070186443695
H           -1.01686688370898        2.52101790680002        7.20192486976757
H           -0.70545883327118        0.08344868916436        7.06848447062503
H            1.57964856954771       -0.20304500338398        3.71903482463897
