74
 energy: -14.435645126975 gnorm: 0.000879136512 xtb: 6.6.1 (8d0f1dd)
C            1.53217714373311        1.46916628712671       -0.41209704706528
C            2.69022078738012        0.47014911260405       -0.36598950356779
C            3.88680911451740        0.95913198272960       -1.18503856809807
C            3.08966852839019        0.15402244286305        1.06157800848834
C            2.95543958989748       -1.12983035894735        1.56468938278463
C            3.31053245559608       -1.44766556612083        2.86372229889736
C            3.13042167989617       -2.87966450684513        3.33779283766196
C            4.40815467847503       -3.46436672568807        3.94670292625415
C            1.93753910434524       -3.01104040530742        4.28529954843127
C            3.81381575773370       -0.43335818372630        3.69545277180655
C            4.19571517006594       -0.71113677449998        5.09270855720707
N            5.44711686134470       -0.63553560463145        5.55509830503821
N            5.43436735401971       -0.93776139999259        6.81559934349945
C            4.17445496189498       -1.20253455059544        7.17145955027709
C            3.75373237207183       -1.57453425648684        8.51371624136925
C            4.68892800643682       -1.78109724400016        9.52414660086761
C            4.28342216371156       -2.13463083873412       10.78780297440523
C            2.93112993313047       -2.28525188632557       11.08048562632318
N            2.50716491165307       -2.65169010799492       12.40328326741886
C            1.54640942829925       -1.97601670598557       13.18421121386085
C            0.80120199477489       -0.82676380866041       12.92307460912111
C           -0.06458059763102       -0.36840278677735       13.88551533656399
C           -0.20193189407912       -1.03343687251183       15.10758500181942
C            0.52865843782545       -2.16404315438329       15.38310121937623
C            1.41446609272593       -2.64089118569705       14.41528124331972
C            2.31945267511519       -3.76578875912861       14.39484042323140
C            2.59469719684937       -4.76899774679921       15.32569666944131
C            3.51456774499485       -5.73635622258467       14.99967252449027
C            4.16327447434869       -5.72369132224443       13.76129423798002
C            3.90287400012444       -4.74323666389497       12.83551087783233
C            2.97766028643420       -3.74960355139628       13.15322986214332
C            1.99628768333309       -2.07536972875404       10.07095490376919
C            2.40196304814371       -1.72806890624957        8.80543387508245
O            3.35020217647985       -1.07176908592958        6.09816953460323
C            3.96114303905153        0.87083358357277        3.19553603365426
C            4.48030088445645        1.98534129687640        4.08311876455975
C            5.72525196118693        2.64648080223303        3.48974296275264
C            3.38387411292103        3.00749054699375        4.38344178017765
C            3.59261064448823        1.14011696742274        1.89202215814583
H            1.20167369520854        1.65306262580651       -1.43545454793697
H            1.83054008631116        2.42737667762587        0.01302040109380
H            0.67580776525641        1.10980229036372        0.16021765596505
H            2.33794785934205       -0.47407987314283       -0.81704366538600
H            4.26616978426812        1.90218611537356       -0.79154850393260
H            3.61741946021825        1.12461895174065       -2.22925444368908
H            4.70642120354628        0.23956472332969       -1.15748458654433
H            2.56274398451307       -1.90030993509996        0.92539273823711
H            2.90192602220948       -3.47706526595428        2.43705845889522
H            4.65314338307712       -2.97410328887926        4.88778494660070
H            5.26038145063493       -3.33596643817391        3.27810156975033
H            4.30062419297013       -4.52924642334315        4.15782345595136
H            2.10614937629206       -2.43881434425123        5.19590229752499
H            1.76776701335017       -4.04864114028309        4.57617527788360
H            1.02282590636206       -2.63227729960789        3.82720448384708
H            5.73373876901409       -1.65912227342444        9.29683785148075
H            5.00464619437941       -2.28705034181767       11.57170130795889
H            0.92027573098502       -0.31478341420178       11.98495735580854
H           -0.64573187820853        0.51939991835093       13.69764697336465
H           -0.88898520845422       -0.65117658967706       15.84451523945989
H            0.43242364929278       -2.67908662341867       16.32258939087020
H            2.08629328370385       -4.77598757463378       16.27365688436630
H            3.73703554122132       -6.51898703652974       15.70631768780554
H            4.87741159306652       -6.49693058838163       13.52980662666670
H            4.38895548974996       -4.73377090527678       11.87637194927511
H            0.95158093087632       -2.20230491547788       10.29493460996107
H            1.68158496524801       -1.56661652013299        8.02202876565317
H            4.77685042464009        1.52540518677809        5.04114951668944
H            5.49105517595537        3.14657541196871        2.55077511770845
H            6.50250194628228        1.90958320848874        3.28494298802143
H            6.14048301219002        3.39572007418790        4.16492395488256
H            3.05406087353007        3.50077461361054        3.46961404897306
H            3.73359584751424        3.78115076290889        5.06823777384768
H            2.51199795894818        2.52925406717879        4.83134408157157
H            3.69193055233728        2.14156805247021        1.51454598346069
