111
 energy: -22.587508704604 gnorm: 0.000623436886 xtb: 6.6.1 (8d0f1dd)
C           -0.60005586111320       -3.13563492939694       -3.77529287440762
C            0.27579173760970       -3.10202060463087       -2.52173812130420
C           -0.22384497019936       -4.08997918280094       -1.46341856683169
C            1.73213713273779       -3.33496575584855       -2.87172033654152
C            2.18448953669668       -4.59133720026655       -3.24291453325221
C            3.50799854929650       -4.82593504233002       -3.57216391781955
C            3.89691846038471       -6.22624225579792       -4.01548781877493
C            3.45036057043392       -6.47151414894679       -5.45813519883133
C            5.38078950926008       -6.55203808442747       -3.83946412146427
C            4.39399511996432       -3.74905599703903       -3.54225284125887
B            5.95248004092510       -3.88243460564734       -3.64857861417069
C            6.71186885729836       -3.46585355435122       -4.89790993382307
C            6.07785696269302       -3.43508135778565       -6.12775584480269
C            6.75088887740625       -3.01935482009659       -7.25776944329074
N            6.08871143237840       -3.01169768693998       -8.52958686829059
C            5.98120913807671       -1.91708098188430       -9.41443088306102
C            6.49346954460168       -0.62377070130507       -9.33095482438469
C            6.21096155329585        0.26452246670761      -10.34061076197673
C            5.42239646088476       -0.11164121797372      -11.43075680662039
C            4.90293964384049       -1.38204209259386      -11.52392055226603
C            5.18178199049352       -2.29443531251470      -10.50723188986845
C            4.78448733147419       -3.66962561239166      -10.29504439139748
C            4.00254198017502       -4.55038009297527      -11.04145708841791
C            3.81243863817042       -5.82806663206905      -10.56771158778344
C            4.39262176778407       -6.24344819837735       -9.36660281620864
C            5.16352581274017       -5.38552556996857       -8.61996478529451
C            5.35488531307429       -4.08422351182838       -9.08003922475273
C            8.09020154433977       -2.61543731722130       -7.13606327199418
C            8.72006599995721       -2.63962478795227       -5.92408682029160
C            8.05012012536581       -3.06497362824050       -4.76526683692012
N            8.68591858490177       -3.05345970028124       -3.51514002050789
C           10.04556993156649       -2.56063077890794       -3.43461110033878
C           11.12254400827174       -3.43717227257857       -3.51511091840461
C           12.41313795883992       -2.96446081490235       -3.43199520349017
C           12.64626291959580       -1.61248469708663       -3.26773729345538
C           11.58413483505858       -0.73254422016906       -3.18673886624412
C           10.29226638971961       -1.20153922789250       -3.26926319890386
C            8.05255175678271       -3.44526792753837       -2.32872299763486
C            8.69272026922767       -3.35670063623519       -1.08135316067630
C            8.03467570967069       -3.67355101807701        0.07495497812944
C            6.69852551244360       -4.10885641938627        0.04980353575602
N            5.97249321601029       -4.38348812722497        1.25259491672017
C            4.63400193683211       -4.00694926012531        1.51361927619889
C            3.70382462283020       -3.30900719251844        0.74186167806650
C            2.46172095453435       -3.05096498033383        1.26824926714804
C            2.12110244515488       -3.48012186652271        2.55238922895372
C            3.02397337818052       -4.16856247262131        3.32855302213760
C            4.29123397893710       -4.43038941578086        2.80912459570164
C            5.44577527754828       -5.10158340420792        3.36342214980156
C            5.66372519307878       -5.73053702514541        4.58862680558359
C            6.88615955765900       -6.31626904567209        4.82127113387421
C            7.89022993542168       -6.28965420670506        3.85087876030699
C            7.68916926036603       -5.67177625651297        2.63997590356401
C            6.46024652471499       -5.06128092688726        2.39188523042842
C            6.06981448812869       -4.22034611184019       -1.17043544854798
C            6.72661727832430       -3.89077762952188       -2.34297605318786
C            3.96058114033640       -2.46744787009231       -3.19767250195016
C            4.92526159202682       -1.29633513324736       -3.19577333856267
C            4.55020858794230       -0.26941933046049       -4.26544246607373
C            5.04935883019691       -0.65639271218035       -1.81182626526203
C            2.63184508615496       -2.28017440323545       -2.86816291732651
H           -1.64283318091256       -2.91362464841598       -3.54335450151158
H           -0.56856372962744       -4.12134513133043       -4.23995895475161
H           -0.25727612824469       -2.41339035771471       -4.51778289545095
H            0.21097463819519       -2.08841487854413       -2.08826031180188
H           -0.23786901345672       -5.10689447123060       -1.85513958724458
H           -1.23879072908717       -3.85212692355746       -1.14111863883126
H            0.41873362911639       -4.08874508552079       -0.58223865996736
H            1.48712511382238       -5.40890598956649       -3.28206128109669
H            3.33369610936039       -6.91887683353134       -3.36436204502560
H            3.94201071174252       -5.77227059794976       -6.13237730016577
H            2.37483618503793       -6.33012089479917       -5.57458457016951
H            3.69606023313228       -7.48130546756130       -5.79003513951005
H            5.99292807512995       -5.92991540739656       -4.49110549762002
H            5.59434747966308       -7.59165113947101       -4.09239768989583
H            5.70898639035202       -6.38387765741014       -2.81350118253228
H            5.04252589147130       -3.71102339510520       -6.19847311449270
H            7.09201415208534       -0.33975104911477       -8.48394344262542
H            6.60201381809503        1.26763777800758      -10.29069598145832
H            5.21562432676522        0.60570131793963      -12.20801678518010
H            4.29032704624259       -1.67825585040497      -12.35724951079355
H            3.56532231650468       -4.22518316089833      -11.96910907494730
H            3.21180519391103       -6.52119396178140      -11.13366566138496
H            4.23555325392925       -7.25285267308969       -9.02287091750281
H            5.63733779895089       -5.70321179634733       -7.70845757927680
H            8.61551992733977       -2.29931541731827       -8.02019497752535
H            9.74603292869620       -2.32759877940178       -5.84436234247221
H           10.92684237486891       -4.48765506689893       -3.64251735694907
H           13.24224313935101       -3.65036661290632       -3.49475296755768
H           13.65710725706868       -1.24413242353731       -3.20239980993600
H           11.76653759319887        0.32199284265077       -3.05810918448200
H            9.45569862525236       -0.52743474304208       -3.20599172417651
H            9.71028659325728       -3.01091519181152       -1.04519717433853
H            8.52296280965030       -3.55871572939513        1.02637502753235
H            3.95647506494832       -2.98504798699731       -0.25052543732387
H            1.74083503308466       -2.50372719477235        0.68313967041018
H            1.13845133285953       -3.26703133958687        2.94028950208717
H            2.77194733665624       -4.50080399604166        4.32032521029102
H            4.88096825577596       -5.75381358723700        5.32634122952525
H            7.07067621477406       -6.80752411283166        5.76263462126863
H            8.83609780105611       -6.76467819524749        4.05440738550363
H            8.45185829653719       -5.66973866546367        1.88229967758126
H            5.05222698394616       -4.56016410638212       -1.21350634527273
H            5.91834661600355       -1.69621780714890       -3.45944178030618
H            3.57860428225242        0.17564294490369       -4.05126544443018
H            4.48999995612011       -0.73113322787239       -5.25229096105990
H            5.27954889422082        0.54038022162826       -4.31704116476986
H            4.09076565999093       -0.25942617865455       -1.47827251821069
H            5.76298463794070        0.16881566032302       -1.81759577813003
H            5.38552150888820       -1.37933049435884       -1.06772766456212
H            2.28772733349764       -1.29682903714612       -2.60220652528560
