129
 energy: -25.233043796327 gnorm: 0.000297812122 xtb: 6.6.1 (8d0f1dd)
C            2.07774613446655        0.59456358054065       -6.64510516642066
C            2.31606185719799        0.17789521730931       -5.19158766745962
C            3.27605961672263       -1.00983393436919       -5.10055666773146
C            2.79963768164376        1.34122668758309       -4.34794576383386
C            3.96130364290874        2.02278384592435       -4.67567802629973
C            4.42304734653167        3.08408086811526       -3.91671243165450
C            5.69983020229370        3.79123191248009       -4.33268835863707
C            5.46033992070916        5.26439013254986       -4.66501284447772
C            6.81284606323341        3.62380269887453       -3.29758691255501
C            3.69149883105476        3.45989966067332       -2.79214393356055
B            4.08109396582311        4.64444478399495       -1.84636935189967
C            3.42961655786905        6.00339076556058       -1.99892576105620
C            2.69253185363012        6.27201073665967       -3.13222226484274
C            2.13438595398166        7.51868527235712       -3.35304943058091
N            1.51191138439285        7.80076748228689       -4.60263191726027
C            1.29621827259451        9.14369844743134       -5.05697133264428
C            0.47997872235414       10.03045110011292       -4.35681672311494
C            0.28029330582216       11.30897109006699       -4.81958021742501
C            0.88521303025021       11.71723409543081       -5.99108450755610
C            1.67937879322067       10.84044076816113       -6.70583097503070
C            1.88848052460797        9.54465081723169       -6.26521542215246
C            2.77428938213651        8.52871608777388       -7.01088129386892
C            2.91619801941819        8.90757008414850       -8.49804264405894
C            4.16664153197559        8.52367562253294       -6.35781447823586
C            2.15893690930628        7.12640790490122       -6.85867976149471
C            2.24554863268177        6.14369423442237       -7.83048624982310
C            1.69670127723198        4.89078486364348       -7.62927388530350
C            1.04000626207328        4.60209236120881       -6.45027531583894
C            0.94886610439548        5.55824826416631       -5.46848777011579
C            1.52629899036720        6.81482426993995       -5.64593659496912
C            2.33707378608388        8.50372497088319       -2.36621886444406
C            3.04576409873635        8.23551992539167       -1.22742253667276
C            3.62041477342387        6.97295299276602       -1.00733297330217
N            4.36457851439746        6.68465663022914        0.14469922458889
C            4.51899529603972        7.72076741079096        1.14484956539481
C            5.53117398860998        8.66878401797049        1.03141031945051
C            5.67223629815898        9.65510492115419        1.98178203934372
C            4.80671524905422        9.70901054069078        3.05768255884372
C            3.79806594228819        8.77261889986331        3.18119274340551
C            3.65371751165365        7.78507370287671        2.23267038035355
C            4.96174119108732        5.43761365487448        0.37400884748168
C            5.72773843468461        5.17857900103654        1.52237529433133
C            6.32296124122386        3.96281436771109        1.71865393282535
C            6.17382755979452        2.91404718916032        0.78943163123803
N            6.89277748277341        1.68906315096577        0.89609727628065
C            6.89423039886260        0.76309897588880       -0.20116748234430
C            5.71307044406630        0.19639230751986       -0.67861785473111
C            5.72627389704526       -0.62125380069622       -1.78222934047088
C            6.92039935753534       -0.89768934851354       -2.41630520192074
C            8.10281163839345       -0.36964101272687       -1.93232797500307
C            8.11576808532315        0.45051037947323       -0.81658522594281
C            9.39512299280926        1.09119256275161       -0.24974782614575
C           10.63679163332666        0.25689912394902       -0.62110378828604
C            9.53933443987376        2.50148947065135       -0.84562114060841
C            9.25513415281678        1.21873013447432        1.27894222735608
C           10.31848755757211        1.07907266655134        2.15463472594885
C           10.14275884810327        1.22064990304612        3.51824189033083
C            8.89296400101684        1.50207867516878        4.03186121440736
C            7.82366240823927        1.65503520554156        3.18232638113887
C            7.99220747071526        1.53606363441176        1.80385962934095
C            5.40859947422914        3.16479252206505       -0.33585593550900
C            4.82989158682975        4.39678502430655       -0.55317334703763
C            2.52440779762050        2.78707728987950       -2.43479869162020
C            1.74720112099171        3.19857729554280       -1.20041291191395
C            0.33147337821248        3.65682942824368       -1.55349247179366
C            1.73952569701444        2.08759275439986       -0.14950149732275
C            2.09486018400441        1.73463066873333       -3.22028476283828
H            1.67474976178523       -0.22893042484396       -7.23678414754603
H            3.00797113486822        0.91098900563531       -7.11692974493394
H            1.37767102414415        1.42815055105138       -6.70949808878679
H            1.34541193882316       -0.14031373988646       -4.77196244864787
H            4.25905212380913       -0.74339497035150       -5.48948368208183
H            2.91415989123584       -1.86293834454673       -5.67661108510826
H            3.40877358386612       -1.33386865969108       -4.06764823507697
H            4.51921428054225        1.71696147568210       -5.54247507272267
H            6.03809025986864        3.29677906710034       -5.26102727497483
H            5.19380779380738        5.82162681241387       -3.76820278862176
H            4.64872162656430        5.38299106584795       -5.38459601653436
H            6.35328135529595        5.73259108853424       -5.08210357797166
H            6.57097614410384        4.16409922835045       -2.38367611820886
H            7.76323940949109        4.01672732616639       -3.66210537872025
H            6.95887351567463        2.57449772234831       -3.03622402660704
H            2.60484820062411        5.50250168453011       -3.87367233517306
H           -0.01697668717438        9.68907322397340       -3.46534610602755
H           -0.35083867532645       11.98955772912874       -4.27138261093637
H            0.73212612043513       12.72102796331854       -6.35291849538661
H            2.14030747707266       11.17808169217945       -7.61667105525151
H            3.37209626491667        9.88974447707807       -8.61382129555869
H            1.94371137832924        8.91874533470142       -8.98932507270398
H            3.55959342199917        8.20509567319713       -9.02561034484270
H            4.63129003821274        9.50696139501253       -6.42491251856219
H            4.82200185343450        7.80144380858909       -6.84388068029676
H            4.09422309273052        8.25717779239270       -5.30371771077885
H            2.75320971455953        6.34869141896444       -8.75588219667395
H            1.77610851514763        4.13878419317950       -8.39746142913890
H            0.59835131816866        3.63109851297832       -6.29796444651365
H            0.42720955299442        5.35045845589909       -4.55067168169372
H            1.95156354613296        9.49291279772644       -2.52830422712430
H            3.18701021556001        9.00281963380044       -0.48730434175919
H            6.19832412987348        8.61571932422275        0.18864282544252
H            6.45865183394612       10.38606572929320        1.88603873752046
H            4.91824389609399       10.48189862520294        3.80068799352109
H            3.12304023507282        8.81544978764604        4.02051336500453
H            2.87163191348301        7.05053222937219        2.31633572242653
H            5.85717824633665        5.96510171997563        2.24428447486650
H            6.94355974378096        3.81111854375333        2.58198601778797
H            4.79045164620345        0.40770752530913       -0.16673720253410
H            4.80623736207474       -1.04433967198629       -2.15028007956630
H            6.93111075326994       -1.53172242219091       -3.28798322340599
H            9.02250514648038       -0.59656709266427       -2.44099182737211
H           10.75447085557742        0.18120407542658       -1.70096976145011
H           10.56298714653055       -0.75025233233337       -0.21194671927136
H           11.54915399807625        0.71611083080405       -0.24352883493129
H            9.62285003567060        2.45871417386008       -1.93122906138767
H           10.42493713947585        3.00073403017326       -0.45355809371365
H            8.67160956493113        3.11227057812452       -0.59788836829684
H           11.30052144528962        0.86074056721615        1.77515616105272
H           10.98321897745293        1.10561453831964        4.18334568293291
H            8.75516657602321        1.59808558663466        5.09667885256180
H            6.83809800908126        1.84081160741549        3.57274501376691
H            5.30068108468247        2.41416317559811       -1.09367319959367
H            2.27408183766481        4.06368394723420       -0.76279787777992
H           -0.24396348448553        2.84041670201936       -1.98974306587646
H            0.34900960680785        4.47134383868610       -2.27863683817435
H           -0.20806298154563        4.00470175816753       -0.67127668593393
H            1.23068129870889        1.20048463422215       -0.52657994974187
H            1.22537870475461        2.40073707885858        0.76042619502533
H            2.75412221895313        1.79380538864919        0.12259446690387
H            1.19726516454861        1.20755757370896       -2.95088686910999
