113
 energy: -22.878467725944 gnorm: 0.000890476287 xtb: 6.6.1 (8d0f1dd)
C            6.03694944158476       -2.17085381337930       -0.18633141358931
C            6.26120173832764       -2.91780459770268        1.13171784762509
C            7.71302455665115       -2.79807057827702        1.59911123318489
C            5.30540154101999       -2.46023789650109        2.21615568550460
C            4.56235036622208       -3.38476653201914        2.93672971920407
C            3.70797078868602       -2.99843725546457        3.95453634752951
C            2.91277895633157       -4.05313886727728        4.70158806717539
C            3.12046927736793       -3.96732392894874        6.21334606660055
C            1.42742417930023       -4.01482982975413        4.33955668681796
C            3.59707434804611       -1.63950197665351        4.24528694228068
B            2.58529248426672       -1.05513340101042        5.28562795729463
C            3.05682577741122       -0.52687203160296        6.63445481315539
C            4.31085506151566       -0.86139506248626        7.10072782259914
C            4.77181729775183       -0.36902948295654        8.31067849646932
N            6.08725855079967       -0.72853331467180        8.78152611192275
C            7.12622826158416        0.22235895137986        8.81269783826826
C            6.91054223788670        1.54484475447737        8.43816045182484
C            7.93484386352033        2.46348412105343        8.45668676262307
C            9.20336301772740        2.07704806527359        8.84982442009721
C            9.44405022185872        0.77343184195253        9.21482258518245
C            8.42397884694366       -0.17837304589761        9.19959558308745
O            8.71743624672821       -1.48415205201773        9.55026115313184
C            7.69295043064998       -2.41303982171251        9.50680704375419
C            7.96249465301359       -3.73866754295350        9.84835169346630
C            6.97202646786288       -4.69201609455021        9.82732393419344
C            5.68225677690934       -4.34363135250714        9.46874737890086
C            5.39131630143200       -3.04270688297149        9.12753788131337
C            6.37821461605364       -2.06217021267551        9.12989631753613
C            3.93254573683467        0.47729496699140        9.05205698291341
C            2.68948841561144        0.81457301230884        8.58762572917534
C            2.21753818363657        0.33122362825449        7.36073597090430
N            0.95748465764392        0.71713084543801        6.86098631349398
C            0.13405020365810        1.60707781136724        7.65178831848193
C           -0.90609925288369        1.10530956952162        8.42873015421569
C           -1.69221812463887        1.95460708876889        9.17409532697124
C           -1.45243690692620        3.31520667922897        9.15561765828822
C           -0.42310129786459        3.82553404995814        8.38821377460417
C            0.36486623640390        2.97982871847084        7.64084221321049
C            0.48948927597731        0.32006531493537        5.59441401731515
C           -0.73538369562171        0.75955930290875        5.08062593595855
C           -1.14860133652128        0.40240876241231        3.82247760890855
C           -0.35412475143012       -0.39913965969869        2.98271271470653
N           -0.79339987873501       -0.84136080030113        1.69053235395870
C           -0.12534113060366       -1.90490830083111        1.01214246441957
C            1.25598781819692       -1.94302824835907        0.82608322889113
C            1.87127362984606       -3.06641018514942        0.32326090562314
C            1.11696382441915       -4.16675945545034       -0.04212339552029
C           -0.25385112242009       -4.12648448143499        0.05774670649169
C           -0.90313663162475       -2.99495492229448        0.55097247804027
O           -2.28902619627215       -2.94002193498618        0.55687319337123
C           -2.86783787156056       -1.69090412131487        0.73149997757363
C           -4.20298678112703       -1.48971526557633        0.38268512300839
C           -4.77523378928088       -0.24259415971977        0.47040431814943
C           -4.02395628697282        0.83787136640647        0.89869783787906
C           -2.71067835549328        0.66200035048218        1.27077965614413
C           -2.12074557376262       -0.59898053276811        1.23568574021776
C            0.84155467057533       -0.85629626144159        3.51188867218202
C            1.25534347199230       -0.51770385052381        4.78115422788075
C            4.33686297013654       -0.69022648139620        3.53999938461056
C            4.20071859505507        0.78608537855118        3.85381841308223
C            5.51895706740118        1.37440085288750        4.36041411758587
C            3.65015340401867        1.56351551963877        2.65709161286432
C            5.18761536407179       -1.11803194019879        2.53984483396252
H            6.67275078083092       -2.56400688766016       -0.98073738469666
H            6.27002171346213       -1.11178508993076       -0.07933670311151
H            5.00081466775445       -2.24561835519895       -0.51758793419688
H            6.04930908401346       -3.98608327179042        0.95013608086166
H            7.96971850614834       -1.75616661155301        1.79194741036454
H            8.40929053460199       -3.17581581521467        0.84910412095783
H            7.87857060198942       -3.35192386505913        2.52441199598295
H            4.65503550138642       -4.42913635077923        2.69711516578198
H            3.30802737271157       -5.03037641593171        4.37129252617152
H            2.69845090058932       -3.04361176306635        6.60584765229819
H            4.18004996079426       -3.98466245035149        6.47017664507982
H            2.63342117251939       -4.79305861900983        6.73409529644320
H            0.96282446114509       -3.10515962582710        4.71742182692830
H            0.88681752292465       -4.85685364202708        4.77396832814206
H            1.27887993256802       -4.04131113445431        3.25908342992103
H            4.94822715628451       -1.49509322430923        6.51234811070061
H            5.92618344488887        1.84389747876846        8.12563339632415
H            7.74882610843055        3.48421133430197        8.16498471244551
H           10.00474975367982        2.79747604805956        8.86580179900661
H           10.42783797199031        0.45912328681457        9.51486050796946
H            8.96747665486532       -3.99626870434846       10.13185597192673
H            7.19945461585619       -5.71089387501695       10.09484502376029
H            4.90516086336384       -5.09022479390408        9.45980494880502
H            4.38554127456568       -2.76776371867703        8.86461591637548
H            4.28564061166346        0.85231408820757        9.99666066616268
H            2.05945338972890        1.46744828820725        9.16467169984217
H           -1.08219313344922        0.04373739962585        8.43466365029593
H           -2.49572254452531        1.55745387065189        9.77269989465432
H           -2.06892493594045        3.97878104917415        9.73975071968605
H           -0.23710837110146        4.88709107472609        8.37390810032553
H            1.16799230374677        3.36497599319595        7.03691057369083
H           -1.35897165476510        1.38396489867122        5.69530681080114
H           -2.12208741092601        0.70888516532266        3.49052523998657
H            1.84160974612594       -1.07169596286800        1.06363800861653
H            2.94349820859112       -3.09369942514772        0.22561753505180
H            1.60332758526038       -5.04814587299949       -0.42686948378816
H           -0.85394527200208       -4.95956374518075       -0.26235534517829
H           -4.76756106097099       -2.33064301038155        0.02096437738042
H           -5.80539973769284       -0.10232930073340        0.18661411951489
H           -4.46799291240882        1.81903530991971        0.93959306203984
H           -2.11387315256201        1.50841669438855        1.56332321099653
H            1.45972545152210       -1.53076479728989        2.95755898449250
H            3.46398172993854        0.87519125157104        4.66951913111976
H            6.28550205568091        1.33164402991623        3.58694664524698
H            5.89349529097866        0.82235574454138        5.22360177466702
H            5.40473571147510        2.41905613760336        4.65305309686101
H            4.34114634103188        1.52087851760211        1.81550748264672
H            3.49264964688596        2.61500973026943        2.90105010295687
H            2.69800855907096        1.15016757788135        2.32154809871595
H            5.77001214812413       -0.39310341783962        2.00105300221938
