89
 energy: -16.853941009911 gnorm: 0.000715167451 xtb: 6.6.1 (8d0f1dd)
C            1.23025858841289       -1.14865793325705       -4.05975146482675
C            1.66667302066227        0.09605516217393       -4.83593434311782
C            0.53846109035729        0.62976065185493       -5.72174210417058
C            2.19220855172016        1.16929358602187       -3.90351388740422
C            3.51497737734319        1.58125096903542       -3.97387439245622
C            4.01949682107493        2.55417681159532       -3.12743582076029
C            5.47173240191710        2.97706052471662       -3.26059307512596
C            5.60068326808410        4.38939239393314       -3.83175182307336
C            6.24595348388645        2.83721989438523       -1.94890407990936
C            3.15965091832898        3.12598017443007       -2.19400801924422
B            3.60101530864871        4.22686927957064       -1.17115212401661
C            3.37191156865938        5.69459745738496       -1.46521021256501
C            2.87823227084535        6.13786328963626       -2.68769972916281
C            2.70295719842358        7.47414086357284       -2.91867633270027
C            3.01874005591815        8.39807911970112       -1.92279617664882
C            3.49456204231717        7.97403394902507       -0.71318331168262
C            3.67790954672553        6.60572774890318       -0.44259781274059
O            4.13060572580885        6.23402487050303        0.80760412647610
C            4.22868023276328        4.89693177881884        1.13630361506981
C            4.60274599650229        4.55537347286338        2.43922040841565
C            4.69611898655438        3.24161777733565        2.86638920179885
N            5.11846338107995        2.92818014196640        4.18668345173871
C            5.41716000323940        1.58303755279608        4.59049882718304
C            4.47518437473719        0.56124108324071        4.49292868048890
C            4.78362690070039       -0.71436784013596        4.90157902404176
C            6.03208233070947       -0.98490426950007        5.42389132522404
C            6.96619010547850        0.02548523690976        5.55058208364266
C            6.67495602887199        1.31925277017794        5.15288172317497
C            7.66435509110645        2.49136113774090        5.27461076755691
C            8.76620756687233        2.18342490289165        6.30670268980935
C            8.31544664573358        2.72860222132340        3.90173769233338
C            6.87271624897749        3.75137158662289        5.66631115000777
C            7.34887973003746        4.71521846822380        6.53863317298240
C            6.58724431958990        5.82289895978567        6.85860080971480
C            5.32845079273774        5.98037944560144        6.31525097204604
C            4.83827497469932        5.03965210156461        5.44125874871657
C            5.60746910114803        3.93315946359552        5.08813502740841
C            4.43946001548647        2.22160468403554        1.92427375339042
C            4.08117865521273        2.52122582226137        0.64640041514717
C            3.96886593685560        3.84940787524482        0.23581371977875
C            1.82790385599696        2.73064780252470       -2.10021859306547
C            0.90728115393201        3.35766233008882       -1.07259709929456
C           -0.24117726662933        4.11631406460976       -1.73948867286616
C            0.39516113482008        2.31975997480453       -0.07224822100094
C            1.36309052183565        1.75391217434089       -2.96006185650411
H            0.91383707703218       -1.94946361941669       -4.72999441628777
H            0.39095207596175       -0.92009990688486       -3.40263868386550
H            2.03975621821903       -1.53060679299873       -3.43564180514500
H            2.50340046610969       -0.19407329384369       -5.49533823728154
H           -0.32436811899400        0.91585559583012       -5.12007986304568
H            0.20299174204469       -0.12024473495687       -6.43970615175107
H            0.85557621825253        1.51295882535949       -6.27842054317764
H            4.16383227459386        1.13268217285932       -4.70500602134392
H            5.93070565185029        2.28233180349008       -3.98673131221489
H            5.21759549864251        5.12513888846191       -3.12612924529405
H            5.03850915652619        4.49636973443282       -4.76086293424844
H            6.64162686801201        4.64642565969674       -4.03414114840220
H            5.89223961564313        3.55981377548533       -1.21509908637439
H            7.31233042832686        3.01969930056870       -2.09072480635114
H            6.12777177700470        1.84110381212228       -1.51994904008864
H            2.63822340870751        5.41313667178649       -3.44612992984472
H            2.32302350438137        7.81457249037228       -3.86799774904301
H            2.88136808308845        9.45082720334604       -2.10828204125709
H            3.73126406137419        8.67950255248664        0.06335218632645
H            4.84060944305324        5.35866696863478        3.10717458960800
H            3.49292515042117        0.79138815959656        4.11791909583403
H            4.05025744794345       -1.50007879832227        4.81918182167834
H            6.27571567191995       -1.98557574271757        5.74217567406928
H            7.93117111872421       -0.20285473227203        5.96629242802449
H            9.33986499172356        1.30325143289882        6.01962739271652
H            8.33637387123497        2.00833202913646        7.29256448738299
H            9.47683259663017        3.00534336527011        6.38191472703246
H            8.86570138238329        1.84685843921353        3.57450627249551
H            9.00666336654233        3.57009330135391        3.93945487895863
H            7.55701223547562        2.94985266326512        3.15123048178192
H            8.32416534947006        4.60635877205348        6.97808181301479
H            6.97371816903906        6.56254923764826        7.54089712796938
H            4.72940920450131        6.83702125811768        6.57836537683383
H            3.84325197505514        5.13271237727968        5.04161876392828
H            4.56086829122987        1.19466618329399        2.21433694073617
H            3.88839984600808        1.73914753227514       -0.06710797087668
H            1.50792982504978        4.09279875685152       -0.51010579359270
H           -0.87870517215169        3.43623071230627       -2.30440703955783
H            0.13266356380664        4.86904022771512       -2.43514719722969
H           -0.86879779210007        4.62028105312945       -1.00297022300675
H           -0.22288952107943        1.57283516458645       -0.57048484526998
H           -0.21170961693647        2.78117867207823        0.70819527323049
H            1.22005891736716        1.79316475042424        0.40987300447355
H            0.33725761968029        1.43965854509107       -2.89406848550828
