101
 energy: -20.150372977559 gnorm: 0.000633204384 xtb: 6.6.1 (8d0f1dd)
C           -1.53797602186405        1.15553955597616       -4.66370030895176
C           -0.56216589688787        1.44774773992283       -3.52175733764609
C           -1.24642384820016        1.34043039620430       -2.15704311230923
C            0.66014637769048        0.55479756342420       -3.59807600084303
C            0.54133800922432       -0.82117004966530       -3.46843411863556
C            1.64795148793590       -1.64746780931214       -3.52814585748675
C            1.52035690607063       -3.14851313549167       -3.37572337893482
C            0.95162429748479       -3.52583089518595       -2.00676464808473
C            0.70410115698670       -3.75694663711745       -4.51672700861903
C            2.89562247195390       -1.07099240990748       -3.72990707729206
B            4.15490186074465       -1.99604795131028       -3.78939522795242
C            4.60666321611484       -2.62008361294164       -5.08971702992074
C            4.00490464827783       -2.31269562904449       -6.30476660809347
C            4.44298061165993       -2.90104959402635       -7.45884711788796
C            5.49712029202337       -3.81353770169906       -7.41641297718914
C            6.09467834626274       -4.12497322663591       -6.22666910378149
C            5.66674483157152       -3.53720387297475       -5.02241763684406
O            6.30193110653879       -3.89331070661335       -3.84954808326831
C            5.90583794685361       -3.33336533707248       -2.65162372764631
C            6.55188590642126       -3.73822738451838       -1.48007856276341
C            6.22042312243290       -3.23157719824641       -0.23449263307364
N            6.80852928474540       -3.75319431497562        0.95162747469573
C            6.28683255620546       -3.40758198546366        2.24495303188859
C            6.22960503570194       -2.08801025618137        2.68775634211951
C            5.69356067643732       -1.78571684429035        3.91767387602121
C            5.21486758959636       -2.79570030821274        4.72841110759972
C            5.29107133448558       -4.11042575280232        4.31289809500968
C            5.83745757854545       -4.43480733966913        3.08560116936329
C            5.96122645403921       -5.88273402637597        2.60433282532424
C            5.97148587963418       -6.86888125572669        3.77970358185443
C            6.86044454771467       -6.99009136850114        4.82766080021828
C            6.64243827425096       -7.96885103604674        5.77985599905722
C            5.54924196142700       -8.81569472064467        5.68619591769558
C            4.65499812711705       -8.70000711010950        4.64073985036216
C            4.86842709341598       -7.71952723969773        3.68254351882295
C            4.09186641995058       -7.37292621246142        2.48288816790055
C            2.93599460613694       -7.93567838721551        1.95965239353396
C            2.41203297303154       -7.42032584153817        0.79020297296557
C            3.02782200090415       -6.35858387002286        0.14638064857089
C            4.17629047182588       -5.79420206426709        0.66603620984063
C            4.70649227654936       -6.30210933668183        1.83279896149904
C            7.20343191842623       -6.03610306574500        1.72277559606015
C            7.93175002132156       -7.20963573835110        1.67713434742848
C            9.06111987649420       -7.31082433061371        0.88918125754883
C            9.48008890315674       -6.22893102445534        0.14056537889943
C            8.76111795980730       -5.05664203628220        0.16325494813470
C            7.60213425744488       -4.95152219094848        0.92893500176044
C            5.17327101063673       -2.28571219379715       -0.16506995681782
C            4.52091799351127       -1.87588082290010       -1.28614164010247
C            4.87483753674684       -2.38568754880032       -2.53412185776462
C            3.04822327320967        0.30316978581501       -3.86234509546784
C            4.42722589165911        0.89467815828242       -4.06189586029683
C            4.53275063635719        1.63393398925392       -5.39664363612765
C            4.82643150589652        1.78739255396962       -2.88587102702467
C            1.92132485995108        1.10123407039438       -3.79395133728303
H           -2.38942205034983        1.83767672676581       -4.64822842471784
H           -1.92960393235779        0.14107676534612       -4.58807401144148
H           -1.04987372010783        1.24629272911143       -5.63525737767560
H           -0.20797444482189        2.48689695264620       -3.63945947215285
H           -1.63108788252674        0.33345274155582       -1.99494530842389
H           -2.08840679492549        2.02949305356425       -2.07501743253186
H           -0.55010656463136        1.55903459684314       -1.34602080787485
H           -0.43071846523807       -1.25393093757206       -3.31621484856248
H            2.54239797460162       -3.56195657072311       -3.43834762530889
H           -0.05747079980709       -3.13236712278667       -1.88458642687687
H            1.56227870710341       -3.12115957425796       -1.19810849478083
H            0.89770596703086       -4.60793374206661       -1.88071402412951
H           -0.32110390746550       -3.38702633601210       -4.49889812521679
H            0.66329753462404       -4.84478348887655       -4.44420078697872
H            1.12929836951250       -3.49973424699151       -5.48805459563706
H            3.19218740088060       -1.60765240614679       -6.32020104987171
H            3.97573929048913       -2.66143774953171       -8.39995482264336
H            5.84056157992872       -4.27503545862277       -8.32776736881279
H            6.90679299176663       -4.82890411195996       -6.18582628833286
H            7.29821573977442       -4.50106019918067       -1.57309599400146
H            6.62522983045238       -1.30986145078676        2.05814470290243
H            5.64781183914506       -0.76089611564555        4.24848751255890
H            4.79037433283757       -2.55905596663470        5.69041601141835
H            4.92546904779339       -4.89852125608221        4.94786816323894
H            7.70453407368383       -6.32559260087119        4.89050930304615
H            7.33009364397470       -8.07286887065230        6.60316833729891
H            5.39489227246485       -9.57280359279636        6.43760107546547
H            3.80333305789479       -9.35248202484431        4.56053864679590
H            2.46644196568991       -8.76198493065867        2.46382607105304
H            1.51659018234707       -7.85000714946043        0.37166865075235
H            2.61350229212597       -5.97358594927545       -0.77065919220622
H            4.66586402522871       -4.97284368580854        0.17801055600317
H            7.60926747794688       -8.04951722362815        2.26756751262138
H            9.62078433968675       -8.23164056930534        0.86650878568371
H           10.37123972110546       -6.30294642973833       -0.46122005026808
H            9.09904000205068       -4.19917977767138       -0.39256952452622
H            4.85852687008962       -1.91750854460417        0.79341990034994
H            3.71397555140957       -1.16677314738230       -1.22454430778609
H            5.13298121667937        0.04573607947601       -4.09282017250506
H            3.85995705084056        2.49122133061145       -5.41888828089886
H            4.26440232230147        0.98441431075213       -6.23115241255516
H            5.54383903842028        2.00549523821367       -5.56973164231500
H            4.16325912582190        2.64930757525597       -2.81196424933536
H            5.84445704586151        2.16385434266321       -2.99603249834094
H            4.76761225396501        1.24648852646435       -1.94022572157810
H            2.02378681099972        2.16708782273675       -3.89098539703359
