102
 energy: -20.316573501460 gnorm: 0.000336409608 xtb: 6.6.1 (8d0f1dd)
C           -2.82787098007223        0.30592424662702       -3.46947598330803
C           -2.03996998934676        0.46327742272902       -2.16696369102124
C           -1.71758692296958       -0.89403464863891       -1.53783353089619
C           -0.78520153746859        1.28665926539559       -2.37832271615513
C            0.21766686380458        0.84304899213326       -3.22794174656703
C            1.36683401314990        1.58349212747710       -3.43259777222260
C            2.46643409636330        1.09699993725097       -4.35305055398760
C            3.05175017908744       -0.23312425302775       -3.87475140508291
C            1.98447661210003        1.01674265671720       -5.80203060083891
C            1.49775988004535        2.79834251146356       -2.77173803022878
B            2.79464834993701        3.64292964318414       -2.99234024884358
C            2.90014476279256        4.63049220400056       -4.13160219367136
C            1.81885530739239        4.93284235497247       -4.95146566569649
C            1.95861625945099        5.83157540121434       -5.97251687575601
C            3.19097988125789        6.44667030766593       -6.19245726887463
C            4.26173693073717        6.15512176073844       -5.39380849134160
C            4.15031059447295        5.23439461304428       -4.33615424845546
O            5.26676145860746        4.97179032793976       -3.56786194733036
C            5.19210701918823        4.06871748442379       -2.52667161314838
C            6.35245968429687        3.79329395587080       -1.79779817174572
C            6.37583368987676        2.89212080104335       -0.74558157835203
N            7.60384982930726        2.51419591322628       -0.12957594712941
C            7.66976694134060        1.37086653332668        0.73600096408086
C            6.88265304775138        1.27597800785961        1.88213470878813
C            6.90099105021848        0.13816459839382        2.65392060724650
C            7.71262870612693       -0.92046989328008        2.30001374358041
C            8.52591028058124       -0.82418246312341        1.18871054851460
C            8.53786427198462        0.31901533266554        0.41054253513428
C            9.49625808212863        0.45381045925112       -0.78303735662912
C           10.80665260258304       -0.25053209609373       -0.42741520672093
C           11.56650847865513        0.21756986824739        0.62998245113924
C           12.74208171348343       -0.40377340821328        0.99827764102671
C           13.17384867204723       -1.51622687779165        0.30710257714397
C           12.43144264664031       -1.99869217454054       -0.74416262364345
C           11.24183664241264       -1.38109542103033       -1.13114677402502
O           10.54318719663091       -1.92906721368945       -2.20533683418360
C            9.38127204777441       -1.29594139281291       -2.64235340679824
C            8.73020848348316       -1.82251138114806       -3.75922260664826
C            7.58417440125528       -1.24618515437057       -4.25447553409534
C            7.05945997310073       -0.12919933522099       -3.63992770122450
C            7.68866780865350        0.39450181991945       -2.53181183069561
C            8.84330297476392       -0.16350168832216       -2.01753696104895
C            9.79154815010959        1.93746090116433       -1.06029504129421
C           10.96653967601716        2.32751044903624       -1.67638865247140
C           11.25692856965983        3.66253403393397       -1.87470034741076
C           10.37116245672544        4.63167759801178       -1.44945906449066
C            9.18779616505538        4.26500024478981       -0.85326025207463
C            8.86588513676508        2.92042018090783       -0.68014472836079
C            5.17049332407179        2.22897217739598       -0.42228235882014
C            4.02488558937897        2.47375515853471       -1.11342911790568
C            4.01737950928145        3.38809254374531       -2.16494232777899
C            0.51373674109328        3.26838893765656       -1.91171582463855
C            0.70569991316997        4.58791576936359       -1.19510355898965
C           -0.38773572604571        5.59172707872617       -1.56377625064126
C            0.80866168358942        4.39104748455258        0.31811372644282
C           -0.62035092274604        2.50028101418835       -1.72442733082587
H           -3.76534297114160       -0.22868463291325       -3.30938651119922
H           -2.25204818967404       -0.25604146113561       -4.20483315163922
H           -3.06290232119840        1.27601279151273       -3.90991221904653
H           -2.67383471414135        1.02150544909470       -1.45589273570165
H           -1.09785793397490       -1.49290024346288       -2.20520709360803
H           -2.62365324345125       -1.46575522294293       -1.33167826355898
H           -1.17123289625788       -0.77701392995889       -0.60078518790333
H            0.09956263508481       -0.09587678971500       -3.73757978535938
H            3.27233686733811        1.85059909121996       -4.31025488506930
H            2.29469438502435       -1.01698629033087       -3.88849808918690
H            3.42695164287407       -0.15693740112372       -2.85310216030048
H            3.87317055180234       -0.56150965802197       -4.51291076288384
H            1.18970912881045        0.27796743291355       -5.90473665266717
H            2.79147467428732        0.72850912696976       -6.47717954976576
H            1.58788650281174        1.97511065812873       -6.14038927119136
H            0.87514369880990        4.44907770912885       -4.76926629559932
H            1.11935991795014        6.06545566778817       -6.60677379236605
H            3.29769229763498        7.15494314588934       -6.99768274438977
H            5.21565951933862        6.62372222825974       -5.55845397176898
H            7.25427677122327        4.27205621555641       -2.12190939926236
H            6.26746147081999        2.11399151401347        2.16110267351450
H            6.28059350390703        0.07218576172843        3.53283093114727
H            7.72184226089742       -1.81701315232184        2.89807656364326
H            9.17087672919397       -1.64306830623496        0.92040207832972
H           11.22199530100355        1.08239087897659        1.17089496964876
H           13.31911985134149       -0.02202504014311        1.82453104775023
H           14.09040541545938       -2.00702410086771        0.59118274361031
H           12.75410130173911       -2.86633711628791       -1.29184821811903
H            9.15235344987043       -2.69367143077879       -4.22796747933872
H            7.09827139867578       -1.66548796173820       -5.12035154782344
H            6.16554682335079        0.33505736287615       -4.02267234581136
H            7.27928971207375        1.25410796375272       -2.03831661919603
H           11.66321120619140        1.57143853563992       -1.99525264632489
H           12.18107083969830        3.94773979525742       -2.35028274098598
H           10.60524008748987        5.67476532812347       -1.58697539585222
H            8.50186171148905        5.01459850936052       -0.49809203505436
H            5.16892974143244        1.48257460020956        0.34936519942985
H            3.11549627327189        1.95135733146309       -0.87299181169996
H            1.66892270760211        4.99917554603182       -1.54549270402498
H           -1.36381164811902        5.24235509684946       -1.22748984299833
H           -0.44471231622365        5.73599793535138       -2.64362968784035
H           -0.21027582229347        6.56431743358159       -1.10254312324937
H           -0.12105394439667        3.98821795514675        0.71977916405610
H            1.00868125152099        5.33244660249248        0.83180193039492
H            1.60638755782696        3.69200861290560        0.57330554894526
H           -1.38841345676003        2.84824174047680       -1.05746166057684
