45
 energy: -8.433326515973 gnorm: 0.000537188122 xtb: 6.6.1 (8d0f1dd)
C            1.05426410148559       -0.22575627264184        0.34484161996303
C            2.56228550018414        0.01370504999819        0.45027066724835
C            3.22849787951756        0.01353178642044       -0.92720531271887
C            2.87237223217766        1.28787376751642        1.21130905588706
C            3.64074718281318        1.25125065067332        2.36705554820535
C            3.93325468596526        2.40540526173850        3.05768505251721
C            3.46542920768164        3.64471997743507        2.61736741419337
C            3.78908217343493        4.83950790277380        3.37054998541084
C            3.35814634156559        6.08613831632691        3.09966400854585
C            3.71444499865337        7.21994541254645        3.88480128118212
N            3.28831375456932        8.42980730542825        3.63189184407171
C            3.77768546882604        9.34621803916804        4.53949304931390
C            3.50580573412396       10.72370113969512        4.53970745867301
C            4.06176717033904       11.52519400822337        5.49854094342740
C            4.91131849353794       11.00554802974698        6.50016988025945
N            5.47436837916259       11.84698497874121        7.47754264232580
C            5.08264337560693       13.24969738284026        7.60008519349664
C            6.46201076322397       11.35292033335894        8.43530305680312
C            5.17933597605792        9.63832555132004        6.49721664793334
C            4.61977644624165        8.82315165615743        5.53213310356496
S            4.77978842581589        7.10981398463255        5.29704608571854
C            2.69675284791428        3.67564810117771        1.45227683719811
C            2.40961057559649        2.51744986344294        0.76491254608402
H            0.83249061170447       -1.17668078725102       -0.14179308060096
H            0.57660790913176        0.55960498482561       -0.24068714676071
H            0.58402000476429       -0.23241337883228        1.32917173736753
H            2.99314076066012       -0.81956548519493        1.03273536341981
H            2.82883576020842        0.81398633308673       -1.54977720411915
H            3.06094234372774       -0.92706234079949       -1.45392085092011
H            4.30536368455996        0.16838895659479       -0.84649492074096
H            4.01119873177250        0.30490946822947        2.72247479351393
H            4.52962557461596        2.36001225454901        3.95296694564960
H            4.42850874116872        4.71139651579564        4.22555132757335
H            2.70891059625997        6.26191724695716        2.26251546949739
H            2.86203319829452       11.12705599421072        3.77843068339728
H            3.85666943285039       12.58056914653441        5.48626623097044
H            3.99755628748653       13.33469616910564        7.62218920441693
H            5.46865018848862       13.82015170176398        6.75711850847616
H            5.47154609792481       13.68541683006247        8.51853268239239
H            7.25042925781360       10.81242009124457        7.91486975627084
H            5.98585600210309       10.68647158737769        9.15206082558896
H            6.92330340893063       12.17412124901159        8.98037165783944
H            5.81100649776348        9.20124305798029        7.24727156583747
H            2.32800303105009        4.61523552144067        1.08172038292778
H            1.82020016422434        2.56162265658607       -0.13464254129809
