118
 energy: -23.490200490336 gnorm: 0.000636963761 xtb: 6.6.1 (8d0f1dd)
C            1.69810407235529       -2.61507162563243       -2.07314428748991
C            2.80667529073225       -1.60879316771410       -1.76396269684204
C            3.09264446457289       -0.69549211075853       -2.95750926338016
C            2.51788032005745       -0.85570172854416       -0.47681536784436
C            3.08831320535108       -1.33307081730121        0.68888855205692
C            2.85104291973732       -0.72507127119522        1.89995623145804
C            2.02399083897763        0.37250999366596        1.96293753169078
C            1.41410231042300        0.87678868102351        0.82896444551202
C            0.54415215915176        2.11191229627985        0.98643580575374
C            1.34074194693324        3.38502016906136        0.70078419022963
C           -0.75016363745028        2.05867792588058        0.17267035924907
C            1.66504265616023        0.26234286597491       -0.41238230413688
N            1.05876445215727        0.77521176793234       -1.60731053245592
C            1.67408889465543        1.86373417209314       -2.26642658825436
O            2.70401292965203        2.35531388561890       -1.84357686026351
C            1.04871709105579        2.38536602137108       -3.48349815758151
C            1.59107540751929        3.46948233308518       -4.12096454999983
C            1.01865469699440        4.01317376793468       -5.28283015736885
N            1.57196538570501        5.13188501269486       -5.82968593450879
C            0.97753409356200        5.67441693159443       -6.87625787164051
C            1.57307706217996        6.92042629383142       -7.40601289646733
C            0.80716558346069        8.06462728775829       -7.62976221208982
C            1.38965036504457        9.21682588497773       -8.10696637476222
C            2.74674086315281        9.25503783150759       -8.35670196536364
C            3.52326790997417        8.13868544878679       -8.11989716508065
C            2.94414213238713        6.98412926842504       -7.64402103973198
C           -0.18067038165824        5.10390769386805       -7.50058871957961
C           -0.77629091258109        5.65698084982309       -8.64708209527926
C           -1.88676052105488        5.09890621920338       -9.21789923351677
C           -2.47740961677652        5.72086053034351      -10.40599971728900
O           -1.98803745612411        6.72805385807735      -10.88310617087829
N           -3.61995831889725        5.12294190909330      -10.97930333283144
C           -4.19419006117893        5.68474693969623      -12.16784838522825
C           -3.76813403334917        5.23968794842609      -13.43367648778031
C           -2.57695016254325        4.31635789975577      -13.62816958645080
C           -1.26311472692043        5.07966665899890      -13.45745341267980
C           -2.61657880007968        3.06222835359965      -12.75290042479860
C           -4.40036769991840        5.72819001312066      -14.56258492745867
C           -5.42867540567075        6.63758167935249      -14.46679288653208
C           -5.82754036219549        7.09278756110904      -13.23096722252532
C           -5.22751430526552        6.63533150399252      -12.07199501950425
C           -5.65475201998478        7.25686377848104      -10.75365911651525
C           -5.94682480980097        6.23038648483542       -9.65835076221165
C           -4.63886857837537        8.30124404578956      -10.29016448050191
C           -4.21422380396421        3.95846947561350      -10.44326929039357
O           -5.21225571088114        3.47057083525924      -10.93967405159500
C           -3.58630082892508        3.33473815698648       -9.27856812253163
C           -4.03988707318602        2.13053264349849       -8.82868375502726
C           -3.41506042791606        1.40385776148074       -7.78640502236111
N           -3.82014831969787        0.02633784706413       -7.74379921972869
C           -2.95426997551366       -0.97622815748709       -7.25006604844081
C           -1.60691609365159       -1.19575296230900       -7.26857795409387
C           -0.64148478704483       -0.54485201869793       -7.96591822375547
C           -0.49002066795308        0.31505341804659       -8.97534266574277
C           -1.11569291369649        0.57115969075977      -10.11867766579113
C           -2.10663363836325       -0.03088897405186      -10.66200450992575
C           -4.85405123592883       -0.28831440904441       -8.29750339811191
C           -2.39583647572401        0.60953378678928       -4.99157365038518
C           -1.86478069436955        0.13549950197014       -3.83262547717435
C           -0.71814423839196        0.68024870730818       -3.32169477719159
C           -0.13007190606369        0.17342057451391       -2.07954410652542
O           -0.65794881571893       -0.73757758892593       -1.46937067075460
C           -0.11773192027094        1.76843809158150       -4.00129072159698
C           -0.69612391721226        2.25096517845436       -5.19440798211033
C           -0.12578941359289        3.38792847793641       -5.81760327926885
C           -0.73322361940369        3.93007125464022       -6.96095821867201
C           -1.86669899110212        3.29865161276963       -7.54616295425496
C           -2.44846298527863        3.91336939732917       -8.67563954640501
C           -2.38806121877901        2.06759881931890       -7.01431163638399
C           -1.84978304373726        1.61662789487794       -5.74859310228465
H            0.74965812251116       -2.10412337988807       -2.22901403560775
H            1.55390672677024       -3.31256465184508       -1.24744569537922
H            1.91669819399060       -3.19193571736955       -2.97233388903469
H            3.73244933969410       -2.18240220187092       -1.57719949194233
H            2.17528026054972       -0.23111527753906       -3.31381520327243
H            3.51804435331780       -1.24669528407418       -3.79709525932842
H            3.78277998673587        0.10474062305863       -2.68652038453012
H            3.72798755915700       -2.19809939465955        0.64478650107153
H            3.31120252995229       -1.10743651334120        2.79621279541601
H            1.84803886927557        0.85165665175302        2.91102204249491
H            0.24660602175523        2.13793261025697        2.05029036307579
H            1.69513863302890        3.39158267217997       -0.32850699885765
H            2.21949313144043        3.45562317600285        1.34254927444961
H            0.73673678845268        4.28048011181331        0.85041634264984
H           -0.54491421857217        2.21424145677708       -0.88467926327007
H           -1.45405937965004        2.83362544106102        0.47873675884413
H           -1.24056758247278        1.08938523944108        0.27339304962776
H            2.47114649347883        3.92779141282087       -3.70900733868420
H           -0.24547913491967        8.04312888294751       -7.40562354238239
H            0.78552284413048       10.09193071784192       -8.28142518632687
H            3.20089305178688       10.15844520056700       -8.72928035956457
H            4.58426031861627        8.17119972144157       -8.30549241208233
H            3.54329483239421        6.11184161123511       -7.44734641286472
H           -0.35652836030946        6.53221812210979       -9.10685516209325
H           -2.62721634420111        3.97196243308850      -14.67660957545904
H           -1.18000839899997        5.47708587092508      -12.44715772203571
H           -1.20489604294058        5.92727507881813      -14.14099235659633
H           -0.39871487129550        4.43892855308076      -13.63462345326075
H           -2.36877967860521        3.30666482376838      -11.72185711553027
H           -1.89485946240139        2.31383256461918      -13.08288930883013
H           -3.60816597645072        2.60774073413204      -12.75575659779521
H           -4.07241259668737        5.39707715355828      -15.53314870807303
H           -5.90889103858389        7.00553507263872      -15.35852974797858
H           -6.61322707648708        7.82565428478366      -13.16235183152782
H           -6.60438878966351        7.78309351683391      -10.95738184510334
H           -5.02064720807529        5.80921649279736       -9.27201248764358
H           -6.54998781196277        5.40544249453628      -10.04006145086673
H           -6.47066347852595        6.67754502043223       -8.81247822865349
H           -3.66810451970967        7.83939045955990      -10.11707908272085
H           -4.94935972939002        8.78157686380790       -9.36170641863789
H           -4.49539490838944        9.07638176003809      -11.04361122138245
H           -4.84300956713827        1.64762286102881       -9.36049326101259
H           -1.25307536543641       -1.94744964699976       -6.58075865079796
H            2.96125135560779       -2.59409627386990      -15.72294976950924
H           -6.62293555551224        2.11672515578875      -11.49747199249640
H           -5.16981654297814       -1.50091318374271       -9.42918997014158
H           -6.44470508954058        0.07482965928552       -7.79215421001666
H           -2.34055322340136       -0.67788304558908       -3.31421433456897
