107
 energy: -21.852815566624 gnorm: 0.000667466449 xtb: 6.6.1 (8d0f1dd)
C            1.36906191129363        0.03010078065950        0.02058806115811
C            2.87908419202586       -0.19461518754711       -0.04818099775051
C            3.43562016968176       -0.78223167828085        1.24946837671356
C            3.23838348151874       -1.02159321354775       -1.26343153780819
C            3.09676416491053       -2.39492236220612       -1.27100910448359
C            3.37313922947654       -3.12227770791207       -2.40790964236067
C            3.77765570303576       -2.47856775012559       -3.55748216487817
C            3.92095942742343       -1.10326133566732       -3.59534854861434
C            4.28148057619525       -0.43766241808688       -4.90853136675412
C            3.03806722887486        0.14812820911633       -5.57767075082612
C            5.38941100621639        0.60686313764409       -4.76397691849611
C            3.64681224430867       -0.36495469486361       -2.43363350211689
N            3.76358018895215        1.06454386768786       -2.40016498093318
C            4.96703100173131        1.62484168322712       -1.91280428052149
O            5.91803391448933        0.91670455704940       -1.63577228613995
C            5.04239914303400        3.07765236571467       -1.75615056410450
C            6.20985235079093        3.67801157913716       -1.31943943839310
C            6.29551525104704        5.04396334111192       -1.15905273379213
C            5.20778956718240        5.87691400793107       -1.42462956488285
C            5.26135409809353        7.32294612050376       -1.26551412296345
C            6.40996143097070        8.00181161157015       -0.85611408071254
C            6.42268153158247        9.37312439025146       -0.71822729048403
C            5.29577442520221       10.13267039588599       -0.97903691118957
C            5.32613359323813       11.58749448961934       -0.82486837861926
O            6.35485133037901       12.16075785520062       -0.51474247286512
N            4.13039558822536       12.30852712799336       -1.04064420739401
C            4.15930026698095       13.73826762340759       -0.92814295591959
C            4.46776747624495       14.48820178794606       -2.07215369565024
C            4.80834450975300       13.76096405310246       -3.35404057105623
C            4.12649749816890       14.37708680120492       -4.57638981121005
C            6.32321716640800       13.65846164004918       -3.52530880000610
C            4.53314871281501       15.86448697270181       -1.98366593825169
C            4.27717585766364       16.50393786448317       -0.79056802947879
C            3.96729670614611       15.76862269967227        0.33305112945664
C            3.90229884696397       14.38759847306407        0.28963478002902
C            3.63103009835895       13.62550701680896        1.57194926878200
C            2.57505709169205       12.53156934069727        1.40355132864505
C            4.92797287355943       13.07212034473858        2.16230996351044
C            2.95060857383868       11.69985517523940       -1.52497187859327
O            1.96370733634940       12.36151295179956       -1.78916082671299
C            2.93980030215654       10.24545765039926       -1.68519476561767
C            1.80232538700024        9.61092902280269       -2.09676800989352
C            1.73770722391385        8.20527834028663       -2.23050543661864
C            0.55803366982679        7.50883914876304       -2.64263513477367
C           -0.70130287709782        8.24597107303452       -2.88003234351424
C           -1.44033170644424        7.99562583513922       -4.03384521194845
C           -2.62660775696267        8.65387836808938       -4.26718765634386
C           -3.10317454729829        9.56688796792105       -3.34814407627806
C           -2.39490879289871        9.81243772781140       -2.18911436638581
C           -1.20944822663786        9.15450344966943       -1.95156159140459
N            0.52470324102962        6.19958356557883       -2.83613675811177
C            1.64853263169629        5.47770376286831       -2.58101474921858
C            1.61706001240431        4.07785288036780       -2.74827249544291
C            2.70332911880980        3.29031961188775       -2.49061056503346
C            2.61415483705415        1.84076703679155       -2.66451215640409
O            1.57247403511555        1.32097636009513       -3.02071375068274
C            3.92220608426103        3.87618116867708       -2.03948633271093
C            4.00046728692747        5.27517135755505       -1.86752074864359
C            2.84758722694589        6.06660786493815       -2.13810941033926
C            2.89546303491814        7.45920626508485       -1.96544842376449
C            4.09853381656772        8.08923006252961       -1.53931791885449
C            4.11645339244040        9.49338850097747       -1.39516456864583
H            1.09687964660059        0.69119319200312        0.84407507136262
H            0.84635150167222       -0.91511064801991        0.16503287940416
H            0.99862888950971        0.47081811856041       -0.90683503604983
H            3.35870817522725        0.78934472854268       -0.19139502281294
H            2.96177599150525       -1.73464310014251        1.48363502849298
H            3.26145760657519       -0.11636719042572        2.09555176614997
H            4.50975672195758       -0.95491505551886        1.17188913411503
H            2.75633966897637       -2.89836678051657       -0.38320799994366
H            3.26166503821185       -4.19404086239238       -2.40178407609501
H            3.97254765900071       -3.05112744028040       -4.44815372425819
H            4.67308099552535       -1.23578659322156       -5.56379792729324
H            2.58678821715191        0.90977365238080       -4.94336535641557
H            2.28044362158062       -0.61775451094872       -5.74592239213610
H            3.27514787402988        0.60944494649580       -6.53678221350983
H            5.01044323027350        1.49971775430233       -4.27055175122681
H            5.78336905031584        0.91756935641039       -5.73243327069730
H            6.21531443342881        0.22672550679179       -4.16136159563337
H            7.05551086928052        3.04717826818284       -1.10492263187874
H            7.22158072059160        5.46931613414811       -0.81824770043428
H            7.30764020549663        7.45060926108551       -0.64401887966603
H            7.31710349289291        9.88282605838952       -0.40326067001526
H            4.41314951757345       12.73623632604777       -3.24309500424293
H            4.50617236571182       15.37861480332237       -4.77453155859536
H            3.04896983442475       14.45432615497433       -4.42564924562288
H            4.29952954594984       13.78063929851769       -5.47295830323400
H            6.76511906458907       14.64843458518923       -3.63494366137653
H            6.59057109089395       13.07398961488261       -4.40619521208832
H            6.78157089661769       13.18949880312358       -2.65264978956099
H            4.79967672230111       16.44006492298324       -2.85270483255562
H            4.33121299657347       17.57861156891300       -0.73310029748638
H            3.78549452316341       16.27330136158331        1.26648522742916
H            3.22277500286758       14.36059137699582        2.28802687132786
H            2.98044001444596       11.69179127388927        0.84243904468702
H            1.70653799760119       12.90075430742038        0.85653124212937
H            2.23707873219305       12.14242914663596        2.36480987867257
H            5.39374299204632       12.37099476900613        1.47156541818201
H            4.75160419017141       12.54674384233046        3.10144970181922
H            5.65120192196985       13.86702307110077        2.34689689868295
H            0.94519836276869       10.21430706571405       -2.33108066769820
H           -1.06618774569631        7.27487385232840       -4.74035686885621
H           -3.18472062737097        8.45391991731287       -5.16705315361114
H           -4.03148364914081       10.08232515692162       -3.53201738029662
H           -2.77183211402736       10.51800534954871       -1.46704486738799
H           -0.67300669587487        9.32206299474725       -1.03350300511769
H            0.70652829187631        3.61406670245517       -3.08012215031612
