76
 energy: -17.253789285423 gnorm: 0.000685716462 xtb: 6.6.1 (8d0f1dd)
C            3.51456789028260        0.24364201301473        0.19787171492976
C            2.45804774099264        0.85144692646917        0.11554376414631
C            1.22668648510493        1.52676810179715       -0.02372234867836
C            1.18012333680791        2.91098461269200       -0.15119494702745
C           -0.02517130147297        3.56173441504074       -0.30938680708527
C           -1.20125562843293        2.84284490231625       -0.34577104201284
C           -1.18937495829051        1.45764810187714       -0.22047899730749
C           -2.38988515897754        0.71628878936355       -0.25074212362964
C           -3.42746779006176        0.07162317235644       -0.26502058310138
C           -4.62536504974640       -0.67126870685781       -0.26778100141361
C           -4.71432496165761       -1.88153586567959        0.41520609114260
C           -5.88657116188808       -2.60104793785899        0.42295600066378
C           -7.00693663673955       -2.13528233152853       -0.25565625116770
N           -8.23033005493470       -2.88907430636954       -0.24991382431298
C           -8.97059896644383       -3.28389040561702       -1.38389218030017
C           -8.73467783117408       -3.08247180822159       -2.74311217156651
C           -9.62494763027689       -3.60065676927688       -3.65145104726374
C          -10.74760871144820       -4.31941136687627       -3.23093408880963
C          -10.99269354711932       -4.53055362441405       -1.89530889428828
C          -10.09663983911146       -4.01016860612656       -0.96029267006609
C          -10.05717289163238       -4.06001606145793        0.48247828693082
C          -10.91322952700246       -4.62634662662770        1.42820967784051
C          -10.60690167387480       -4.48755053629003        2.76068731205910
C           -9.46476810569166       -3.79216729507079        3.16786425098568
C           -8.61297513896980       -3.23012586425277        2.24882050972431
C           -8.90530257766834       -3.36738977694354        0.89258343907481
C           -6.92249854108615       -0.92725385760839       -0.93840260342390
C           -5.75179733947979       -0.20510889695910       -0.94082650628745
C            0.03253413390192        0.81656408591516       -0.05566090097653
C            4.72726909997164       -0.47331205486905        0.24437846339610
C            4.91586393276067       -1.59152830574270       -0.56346827670227
C            6.10014684912126       -2.28983076278054       -0.53442124168493
C            7.13584545079258       -1.89276229788084        0.30350108503509
N            8.37719102959740       -2.61556002372933        0.32007137082509
C            9.05382078663090       -3.09056080899822        1.46346190054551
C            8.72880070424972       -3.01080974885188        2.81706385232718
C            9.57338677436088       -3.58628665185794        3.73454905607087
C           10.73748719222658       -4.24493850634896        3.32876858045515
C           11.06962999888596       -4.33862933266851        1.99868676407770
C           10.22098518588738       -3.75834513673132        1.05481404600488
C           10.27141185862429       -3.69221232412803       -0.38665291373478
C           11.19248328970233       -4.17339789098528       -1.31838437220254
C           10.96382954793866       -3.93818633630003       -2.65285159779568
C            9.83581304067881       -3.22912694422198       -3.07506868549631
C            8.92081446765794       -2.75035216867651       -2.16980075567606
C            9.13283512217852       -2.98715722689587       -0.81208274657923
C            6.95006605028546       -0.77909842348482        1.11503203610195
C            5.76510810835156       -0.08052626753092        1.08566597656080
H            2.10102195928079        3.46841903426451       -0.12815965523628
H           -0.04788494328846        4.63473909156391       -0.40728574536815
H           -2.14424691580202        3.34736422049883       -0.47051419123470
H           -3.84899069343613       -2.24748186266162        0.94101688086849
H           -5.94868294663091       -3.54061212926000        0.94362432160942
H           -7.86354578782397       -2.53679063814390       -3.05854939384554
H           -9.45506030851205       -3.45327853172529       -4.70539751487999
H          -11.42877625894901       -4.71577103747066       -3.96589675776881
H          -11.85218767450221       -5.08578047794488       -1.56340779132579
H          -11.79290276780367       -5.15539430599639        1.10657847226505
H          -11.25785163574974       -4.91806103492736        3.50377943112731
H           -9.25148422866382       -3.69387687581420        4.21963775026673
H           -7.73765418009676       -2.68511284730461        2.55370706331411
H           -7.79320757469424       -0.55997684394171       -1.45287986075646
H           -5.69279171318874        0.73229870081241       -1.46709400956690
H            0.05516520060596       -0.25441044806821        0.04151312378718
H            4.11797380411475       -1.90244209331454       -1.21613448411755
H            6.23620776412502       -3.16056882333253       -1.15162409026279
H            7.82566813097740       -2.51307983322179        3.12137504600939
H            9.33477480820238       -3.53166609764197        4.78405490640640
H           11.38144027948196       -4.68821942774254        4.07045798600721
H           11.96084801172394       -4.84803287273775        1.67708279275493
H           12.06022972167415       -4.71448685750691       -0.98464102837608
H           11.66508608869619       -4.30286520051035       -3.38531632033772
H            9.68358133412857       -3.05423481633528       -4.12751345981492
H            8.05704246947520       -2.19408806825937       -2.48679188650916
H            7.75587212104569       -0.46161413835374        1.75337929039806
H            5.62856288183202        0.78447095104313        1.71198452459652
