96
 energy: -18.888971390962 gnorm: 0.000343290057 xtb: 6.6.1 (8d0f1dd)
C            2.05236025985378       -1.17045508591112       -1.54725412828572
C            3.13422653049805       -0.62892743108164       -0.61334955518449
C            3.29893045273191       -1.48668752565443        0.64211937053723
C            4.43493824014352       -0.43599323085666       -1.36244186079873
C            5.28302615100655       -1.49337602476854       -1.62513237283330
C            6.43292454155270       -1.30427652588696       -2.35956849155021
C            6.73779274016603       -0.05508847367520       -2.85497406659162
C            5.90883887398463        1.02801463097227       -2.62410433355998
C            6.24679090952264        2.36327225859440       -3.25658184037107
C            5.38252317382210        2.61383804071860       -4.49275692956414
C            6.16861818584005        3.52641751525638       -2.26577190748637
C            4.74248876280283        0.83441066545940       -1.86932646418349
N            3.83316218908695        1.90861229949121       -1.59364897461875
C            3.95525753697662        2.58280944386137       -0.35937759290610
O            4.88099583796816        2.34408123594959        0.39626197617868
C            2.94421469912172        3.57559320843446       -0.01123300873157
C            3.01883058315450        4.25025276890417        1.18870273447257
C            2.06397371953148        5.18899037770518        1.55194724996846
Cl           1.96197999227766        5.61145767269162        3.21892787181853
C            1.03477839229208        5.55312078358057        0.65603846094412
C            0.12180348807732        6.65084080501060        0.88684808359050
C            0.41567760251573        7.75305292915225        1.72106405263789
Cl           2.04856564008464        8.22307246922284        2.00625462921828
C           -0.57796899574269        8.65101157416326        2.08080836558970
C           -1.85445025728436        8.55418430241480        1.56849701464331
C           -2.14767073415248        7.55555440603845        0.61184667866405
C           -3.43824044427863        7.46520522222618        0.04276242335219
C           -3.71109374646387        6.46514422875687       -0.86611309573810
C           -2.73662025908289        5.55962037351124       -1.26136703215808
Cl          -3.27000911518218        4.08883393793866       -1.98298010136094
C           -1.40234500757327        5.69808214195958       -0.81916949565126
C           -0.30112763152379        4.91093374350225       -1.32995834941191
C           -0.30160521361009        4.29086263566922       -2.59916321860859
Cl          -1.27234624818842        4.91881659843041       -3.87676289089740
C            0.67555456762085        3.36403145308433       -2.93378251027175
C            1.73129387036828        3.09522457632014       -2.08859392427771
C            1.85141052972274        3.81083921273387       -0.87583742665476
C            0.86094998854354        4.76310375928501       -0.51728239560723
C            2.73594311436088        2.10355356780013       -2.45858600462816
O            2.62447669228609        1.45665336115270       -3.48549048420820
C           -1.13943605800362        6.63458746030358        0.22252202876453
C           -4.49188827917224        8.38133367705504        0.46738232258070
O           -5.61022582205307        8.31466084728446       -0.01161598183801
N           -4.18259222377373        9.33491112873891        1.46154961055131
C           -5.17535546015981       10.27590191047450        1.84726980530647
C           -5.33780575018241       11.42524104742509        1.06328053956512
C           -4.41766688763859       11.64226817459652       -0.11798764215879
C           -5.15425815536377       12.17079139617856       -1.34977451174954
C           -3.23951238305853       12.53149779247533        0.27801356714281
C           -6.27489413567277       12.36924431869726        1.43477087822844
C           -7.06003336224569       12.17713949485101        2.55023735017167
C           -6.90483968396169       11.04250551869151        3.31655087987494
C           -5.97042323745411       10.07777871898136        2.98523159969423
C           -5.79149692661070        8.88406541698222        3.90310444344454
C           -5.71862255536871        7.55513641789816        3.14824257427909
C           -4.58579891898787        9.07862474378084        4.82327316381923
C           -2.88519946997011        9.50252335887752        1.97919384062945
O           -2.62584466788746       10.40766472457801        2.75322000452727
H            1.08642021707517       -1.24132528487940       -1.04653845543578
H            2.31662606042815       -2.16510189201955       -1.90472442694805
H            1.93596565831139       -0.52790586802749       -2.42186401366696
H            2.81767917942704        0.37475153062556       -0.28055193049346
H            3.56160422824453       -2.51199483690597        0.38547447316258
H            2.37698075117564       -1.52350339291482        1.22342916215436
H            4.08664795723707       -1.09225743102829        1.28506446976756
H            5.03595215227240       -2.47524474947121       -1.26160164226674
H            7.08895849338941       -2.13615790570038       -2.55592260367652
H            7.62913771753247        0.08172223173875       -3.44282488452904
H            7.29725791714053        2.29200046419441       -3.58944781261958
H            4.32854888040502        2.65032935588574       -4.22135167108850
H            5.49604830527787        1.81342129484775       -5.22436179380176
H            5.63511962099622        3.55737493375950       -4.97713062085757
H            5.13217499548602        3.75634172908874       -2.02681365492580
H            6.61446673293546        4.43540374694430       -2.67106907223946
H            6.67230011466679        3.28294471941787       -1.32937316528773
H            3.81378460196607        4.00961978119607        1.87310779357690
H           -0.34405772068765        9.46153759531836        2.74900271887593
H           -4.71505450424920        6.36070188489874       -1.23949577794858
H            0.62984377715349        2.86538256480588       -3.88632216735143
H           -4.01491225263083       10.64909705017765       -0.38221977862537
H           -5.53815222539610       13.17522782828470       -1.17679634432016
H           -5.99925866735410       11.53043056955256       -1.60542908889186
H           -4.49547126887494       12.22107850029826       -2.21742864575057
H           -3.58615425885083       13.52715658904017        0.55257821182963
H           -2.52432531002826       12.64055071402979       -0.53770465788894
H           -2.71319993546186       12.11842286504569        1.14033200847947
H           -6.38281087520017       13.26823434085713        0.85396540314470
H           -7.78892283278592       12.91974657239980        2.82986468829232
H           -7.51056652187077       10.90666970965592        4.19602153069151
H           -6.69458525394244        8.84469798605419        4.53741966676255
H           -4.76433702288258        7.45862892998720        2.63425425912183
H           -6.50418831509027        7.48475297459331        2.39477166993806
H           -5.80842209599514        6.70127411632838        3.82067810090832
H           -3.66992589530771        9.16700964531059        4.24115415691109
H           -4.46390197035411        8.24126903769615        5.51079749318989
H           -4.67933606914765        9.99182804895943        5.41146147340411
