122
 energy: -24.915273467930 gnorm: 0.000360232093 xtb: 6.6.1 (8d0f1dd)
C            3.69285067039925        1.31085522707833        1.29756066629370
C            2.71746466177586        2.12538791301422        2.14766001688236
C            2.57100242031753        3.55594358895598        1.62635991443362
C            1.39536544493401        1.39451653903097        2.31798337059769
C            1.22798628495155        0.63947427201685        3.46422389825142
C            0.07811131363496       -0.08408523305695        3.68099623640650
C           -0.92442350076982       -0.07239602039263        2.73868333735128
C           -0.79839771271597        0.65089884844537        1.56700313840249
C           -1.96234217123974        0.62826780753284        0.59272830731697
C           -2.88895036698882        1.82272983489559        0.81679504552388
C           -1.52990336813071        0.51348200117433       -0.86994152122439
C            0.37027770982477        1.40512080671927        1.35075736619487
N            0.51958052956538        2.18535113151858        0.15501767549020
C            1.27253447998935        1.65109450975627       -0.91550622807000
O            1.64746220765813        0.49085804532699       -0.89901637959972
C            1.61322673259935        2.52965009212117       -2.02969438655422
C            2.44929338217306        2.07584062080577       -3.03286593505793
C            2.85364271523687        2.90729817308268       -4.04827675997734
C            2.42785182324252        4.24267776227044       -4.11843055305452
C            2.91510914228848        5.15498880922394       -5.12932202181618
C            3.16438110348517        4.70742953645383       -6.52016962657229
C            3.64783890423125        5.58498448152514       -7.49748767335344
C            3.81706023355417        5.19085194837138       -8.80528974777831
C            3.47914943365706        3.91160293835532       -9.19291181227555
C            2.94633460290174        3.03972239502816       -8.26707915526179
C            2.77825322633479        3.43508093909052       -6.95892816149933
C            2.93418479295070        6.54709873153479       -4.76921745896637
C            4.05648391897083        7.42197423590481       -5.07338867268607
C            5.30919048334695        6.91826993992413       -5.43081805031314
C            6.38980425927619        7.75106013793630       -5.61959914054463
C            6.27152673677920        9.11740417437591       -5.45514524730448
C            5.02226561672669        9.67038289645632       -5.09612039827903
C            4.87560263012089       11.06423603684377       -4.91883377314442
C            3.63816841852222       11.57846213622990       -4.56991008855709
C            2.56873154930566       10.75096413796775       -4.31627167187914
C            2.68783113992703        9.35485912473383       -4.39058928671402
C            1.65772551243651        8.47297110314137       -3.91417351391836
C            0.37343427514019        9.05205818661954       -3.45123714734438
C           -0.82494250823452        8.69188306251953       -4.07439282063274
C           -2.02551424241276        9.20910476106533       -3.64556906930212
C           -2.05960990112983       10.09333920269558       -2.58567361196650
C           -0.88771771496098       10.45930049856472       -1.95353211232939
C            0.31654951037771        9.94709989593091       -2.37843093734208
C            1.88069080969726        7.06813832127118       -3.93032808775567
C            1.20518302667255        6.12139654523895       -3.04612139668328
C            0.35548254447551        6.53032572362229       -2.01365375322237
C           -0.07514656254931        5.66785037805006       -1.03122780557863
C            0.33124975800730        4.35025331783947       -1.01342378564024
C            1.15904549084913        3.86827056207843       -2.05057556395522
C            1.58352012570988        4.74721855167851       -3.08305535124345
C           -0.01087207246293        3.49508745156316        0.12144736499622
O           -0.69896173239533        3.91876787561177        1.03361199349171
C            3.91629372206648        8.81372199961507       -4.86679401267182
C            6.03688411596721       11.94235321248046       -5.02924212274635
O            5.92906593440063       13.14247303541348       -4.84468931273254
N            7.29498988005259       11.35686287786307       -5.30677386841881
C            8.47616753472476       12.16788607785236       -5.21817820657948
C            8.89491830291345       12.93849949686236       -6.31922149619695
C            8.13318195132490       12.99209174162333       -7.63127209977619
C            7.64943276185569       11.62259498305501       -8.11095686161199
C            6.98980287470005       14.00357189053918       -7.56125103778222
C           10.02813905927430       13.72168036300072       -6.19941067766034
C           10.76129020327142       13.74208088504523       -5.03526398816253
C           10.36313625414352       12.97673147466547       -3.96361171794209
C            9.22686477060783       12.19124104428704       -4.02556516826503
C            8.89301436818667       11.34530980632514       -2.80739373763160
C            7.40870044706451       11.35110215902886       -2.43816762295107
C            9.43238356889208        9.92268055748275       -2.95881581601751
C            7.44330723701462        9.97869309068628       -5.58566925107954
O            8.52415560713759        9.51623053968656       -5.90742137683482
H            4.65774493106337        1.81012914938664        1.20195618978052
H            3.29626559021434        1.16177841872360        0.29491757785411
H            3.86191287608821        0.32201159078128        1.72505265692489
H            3.15013916009615        2.20486820313090        3.16137519725548
H            2.33186243229002        3.55438104026111        0.56509597628960
H            3.49365313761689        4.12637812023578        1.74235721421298
H            1.77185385334403        4.08695418729460        2.14538095920163
H            2.01595345464462        0.61718052770915        4.19778559285763
H           -0.03559299251792       -0.65971159129868        4.58492731803931
H           -1.82564922307450       -0.63470631087150        2.91435756647945
H           -2.53564857980063       -0.28681040127806        0.82679645685916
H           -2.36042586838186        2.75554775142583        0.62808193295784
H           -3.24696705811456        1.85948919847474        1.84623118650316
H           -3.75520890499544        1.79108258466544        0.15515713824134
H           -1.11063311206383        1.45493185938984       -1.22023944988117
H           -2.36912871847135        0.27284437684254       -1.52383220386724
H           -0.76357374337277       -0.25283965762842       -0.99596871329743
H            2.80308315839554        1.06035421930447       -2.98132577570453
H            3.58260728551992        2.55353893417868       -4.75617908691988
H            3.86061939865644        6.60396931862924       -7.23445073260162
H            4.20392238558252        5.88707546789296       -9.53138788009695
H            3.60874907130681        3.60281507998252      -10.21730561830251
H            2.64587234590190        2.05087531032809       -8.57304086329749
H            2.27821735503917        2.76866011919363       -6.28057418024582
H            5.43406374203623        5.85387772172681       -5.52664325715244
H            7.35342330942317        7.34866984318742       -5.88074142421080
H            3.54418165931551       12.64479710374400       -4.45596729894645
H            1.62960000888329       11.18154769892437       -4.01960414529215
H           -0.79335583099326        7.99931110568065       -4.89777723853106
H           -2.94079322725848        8.92255171848360       -4.13691740543391
H           -3.00124904131093       10.49676084893154       -2.25100643271180
H           -0.91696008358182       11.14637223926029       -1.12389795239353
H            1.22898723047766       10.21578611451181       -1.87440820774788
H            0.07112472782753        7.56045183023920       -1.93772775206826
H           -0.69674499216536        6.02058280250621       -0.22596484342955
H            8.85407072888880       13.35575976613654       -8.38553978297067
H            6.80894122733503       11.28118905776671       -7.50942397882347
H            8.43815292592120       10.87351133536107       -8.02604957098181
H            7.31142485064163       11.65146558358907       -9.14763764501475
H            6.26362529579471       13.70603704853811       -6.80678107071379
H            6.46547880212295       14.08631736007299       -8.51383066730912
H            7.35272989375585       14.99394254486218       -7.28428818046764
H           10.33962647338662       14.32591638419364       -7.03435623233469
H           11.64619511621975       14.35297455960113       -4.96371538892436
H           10.94743318299251       12.98411508994198       -3.05915121167450
H            9.42774982858684       11.81265814287600       -1.96076960166417
H            6.83875466597013       10.73790241561416       -3.13289660781352
H            6.99605509589275       12.36035885814178       -2.47149733413739
H            7.23720311074499       10.94305080512631       -1.44106509528337
H            8.97066556112317        9.42555230608729       -3.80999957156008
H            9.23120479074409        9.31924182412294       -2.07291200175334
H           10.50875835054014        9.92268120111668       -3.13363980893020
