73
 energy: -13.932097243486 gnorm: 0.001409622698 xtb: 6.6.1 (8d0f1dd)
C            1.28630244935859       -0.35051524525383       -0.37378236498097
C            1.79592556461733        0.23151614106696        0.94558813824478
C            0.77712668978475        1.17134301115136        1.58971454461124
C            2.22972801789075       -0.83575917746472        1.92774337894460
C            1.45784166868711       -1.95582862199428        2.16640415748214
C            1.83950460130892       -2.88352457184973        3.11087172814725
C            2.99191721990934       -2.68921757088083        3.84127201392964
C            3.78949538688418       -1.57678424383511        3.63891674197097
C            5.00354975930028       -1.37059929802836        4.52278183525906
C            6.27126119351942       -1.05901052319862        3.72612707374249
C            4.72903326588195       -0.30622776706385        5.58502987751762
C            3.40434498191678       -0.63931061489975        2.66856640875853
N            4.18570725931833        0.53258705052977        2.39429445851643
C            5.11064908743439        0.47659995254634        1.32719576831490
O            5.34858472991085       -0.57299557522643        0.75712838010837
C            5.77569517845133        1.71712455526306        0.92331451186433
C            6.69639091427934        1.71611764878504       -0.09776423806997
C            7.30949691369833        2.89611199001660       -0.50682430018337
C            6.99925452921080        4.08329272515258        0.09900128928817
C            6.06523179020717        4.13111417046030        1.14225279908641
C            5.70234514553232        5.37073326050730        1.75795775696439
O            6.30314832776611        6.54374602573306        1.30881522667329
C            5.60119558690082        7.75806143636129        1.45760774352160
C            6.27427537739047        8.91197299771599        1.84646993389364
C            5.60065109531951       10.10240447091934        1.99369948306162
C            4.23476943344516       10.19546165873772        1.75313373520045
C            3.51547130769650       11.53900463458872        1.94723943761686
C            3.66801736537187       11.98797349938527        3.41185743635015
C            4.13907470380835       12.59298043520658        1.01417397279314
C            2.01188794627413       11.43451162363275        1.62527484058025
C            3.56859899666243        9.04411942213977        1.34863299570530
C            4.23570566506843        7.85058045854122        1.20080372546022
C            4.76785910666138        5.35283907117402        2.78508050022908
C            4.17581340719912        4.17582784269265        3.20011165198818
C            4.49202832170867        2.96922172397395        2.61024643941594
C            5.44726714809292        2.93435742471467        1.56685792627097
C            3.83231114620141        1.74022499144609        3.03794089934171
O            2.98809670104371        1.75872757363621        3.91763287590425
H            1.08230785553934        0.43479258906996       -1.10305334838431
H            0.35942501484742       -0.90361128180334       -0.22677479673735
H            2.01641756714391       -1.03386360777704       -0.80946348907666
H            2.69878043341269        0.82263350861900        0.71285676873622
H           -0.13714900980974        0.63346523775005        1.83954530960380
H            0.50917436739413        1.99299744654653        0.92433782969441
H            1.17035383286963        1.59686534434359        2.51469311645661
H            0.54489677962435       -2.09927365405443        1.61575901726103
H            1.22868983597225       -3.75371543259624        3.28748400005026
H            3.27311146614787       -3.40713891200111        4.59263677995724
H            5.17536976275328       -2.32933897965876        5.04363652832126
H            6.22955853781269       -0.04994619586660        3.32012817169350
H            6.38788243798608       -1.74398488255602        2.88507794627693
H            7.16612350295030       -1.11903030802716        4.34724870963081
H            4.51285843042158        0.65314238494160        5.11685486786572
H            5.58333662633154       -0.16829146534013        6.24890107918582
H            3.86245881590346       -0.56788415529479        6.19327642247823
H            6.92727980242902        0.78183587520763       -0.58036836813775
H            8.02602467817629        2.87288938389693       -1.31125627673097
H            7.45975799073803        5.00271530082113       -0.21805369342675
H            7.33112971170882        8.84860420863969        2.03596826006782
H            6.14160604250497       10.97938972923754        2.30375503305973
H            4.71474532621330       12.13454082612869        3.67436715835138
H            3.25508919194047       11.24030758071917        4.08761872445067
H            3.14564336498418       12.92736494792617        3.58798414506080
H            5.19508915850136       12.74250828172750        1.23431606463347
H            3.63737987043598       13.55441116491171        1.12263656966418
H            4.05446985023259       12.28379741032083       -0.02749419002364
H            1.52243713181613       10.70393066059188        2.26784497455741
H            1.85202304996161       11.14539149321295        0.58737958419520
H            1.51632777097483       12.39217855552088        1.78013581272051
H            2.51353895079541        9.07834646879097        1.14410402958506
H            3.71286486559145        6.97002790795036        0.87171567638496
H            4.51438076249608        6.27948221301912        3.26760702325822
H            3.44642823946816        4.18004776868660        3.99182577575648
