61
 energy: -12.064212611339 gnorm: 0.000561970114 xtb: 6.6.1 (8d0f1dd)
C            2.48245641157714       -0.75994769294101       -0.10971059877854
C            3.76947866848441       -0.08865098412637        0.37011272440274
C            4.60822360592926        0.43095325886376       -0.79877207757552
C            3.47566168386621        0.96421563286361        1.42502213063908
C            3.57132660354452        0.58673956642901        2.75222737157408
C            3.29027970828054        1.47125408664706        3.76762209095858
C            2.89471150958179        2.75380573051314        3.46617176248958
C            2.76482380434017        3.17420119719197        2.15492558111745
C            2.35286123530401        4.61613880828874        1.91396551762320
C            3.57476773790673        5.50869230225707        1.69652393313278
C            1.32415536957792        4.77944654785982        0.79354579411457
C            3.06508854398204        2.27428923398842        1.11554917186755
N            2.96449004251794        2.69432901611326       -0.25286577514931
C            1.78807390604558        2.39289131546469       -0.97304335169599
O            0.85719320654586        1.81493485902170       -0.44108918196130
C            1.70972990397318        2.80091827579603       -2.37625734226955
C            0.60101637101079        2.49184840661128       -3.12845588559397
C            0.52035160625488        2.86737755615094       -4.46325614362894
C            1.54080645284507        3.56673644266256       -5.04761596832707
C            2.68199971710625        3.92804125596236       -4.31648751404221
C            3.76542953976564        4.66543731245950       -4.90357544940962
O            3.72554324815712        5.15570421565141       -6.21379530800165
C            2.57626763952259        5.84114860676250       -6.65999326586202
C            2.23220328268114        5.79672383381829       -8.01044910577603
C            1.10806644027234        6.44182196943440       -8.46811095301580
C            0.30869687019102        7.15092612296580       -7.58694705101267
Cl          -1.11398627730490        7.95031068943717       -8.16077239892232
C            0.64737023843684        7.21783952773149       -6.24570708747648
C            1.77141209229549        6.57380013992654       -5.78703853454895
C            4.90478603767340        4.89477245754253       -4.13966900851690
C            4.98867679282037        4.48230281376972       -2.82651933985804
C            3.94440778663996        3.81290197768122       -2.22055226605903
C            2.77764386623570        3.51945654513339       -2.96572404146465
C            4.05428934161629        3.38251705268823       -0.83209585487572
O            5.06758082421133        3.60262138583390       -0.19018024633897
H            2.68534942125088       -1.54864291184666       -0.83470393453566
H            1.82565749788251       -0.03328878087877       -0.58440266943830
H            1.92841974317040       -1.19614863499442        0.72203913335616
H            4.37746588891514       -0.86079026617214        0.87506447859432
H            4.00964842997510        1.06798549859008       -1.44705829590492
H            4.99062551890297       -0.38273318698789       -1.41653280309279
H            5.45452996165824        1.02209284226403       -0.44566155734798
H            3.87024485610056       -0.41951817733630        2.99172550075169
H            3.37930618135608        1.16046117992023        4.79563074824943
H            2.68378156106932        3.44624803478050        4.26324095442336
H            1.86025305094170        4.94923038462675        2.84519151252112
H            4.12200470641290        5.19891747410411        0.80795899135734
H            4.26696622108744        5.44491412442717        2.53665027807201
H            3.29249811196057        6.55380625012069        1.56579658814555
H            1.79276908302552        4.64580929765825       -0.17950802987941
H            0.87438281522995        5.77307717479900        0.79733368978660
H            0.52653295206017        4.04003364450606        0.87868140617208
H           -0.20135274390780        1.94687946450246       -2.66163897254663
H           -0.35153254695088        2.60594330455110       -5.03992142995241
H            1.47933534437331        3.84092834054765       -6.08508514383857
H            2.86252776055483        5.24125658678955       -8.68162617494201
H            0.83411211437636        6.40528256808337       -9.50852995982278
H            0.01943068514983        7.77878905094589       -5.57510574314826
H            2.04536104328872        6.62424766068766       -4.74851333073217
H            5.71995400195025        5.42743095673686       -4.59594956875215
H            5.87420452827592        4.67829865311117       -2.24656799528158
