63
 energy: -12.091554828719 gnorm: 0.000973149632 xtb: 6.6.1 (8d0f1dd)
C           -0.27314033485450        0.91808054182086       -0.77778802312723
C            0.97779966443561        0.40493868217584       -0.06523304868925
C            0.67402362241314       -0.79439402240749        0.83419291851828
C            2.08014554136897        0.10885205766281       -1.05808272351020
C            1.98488499524939       -0.97106699776782       -1.91019623053352
C            2.96713681885555       -1.22008163010132       -2.84470347080043
C            4.05252000581702       -0.37532869756799       -2.94624969662329
C            4.19250760728650        0.72182887078648       -2.11793758279900
C            5.37924126201972        1.64193797854688       -2.35765297884702
C            5.05307948958309        2.67928891568180       -3.43236071149763
C            5.92356958413787        2.31760865647631       -1.09931394059749
C            3.19411547823276        0.96911639589141       -1.14832146236897
N            3.30030028057301        2.06358414223302       -0.23925956013553
C            3.67968712623563        1.98213718949803        1.07861444251422
C            3.86345271788072        0.68389334684484        1.75395189752360
C            3.42973660435401        0.50997392230445        3.06916944627641
C            3.58008711460888       -0.69856164986140        3.71115237252502
C            4.16892620481244       -1.76208108774080        3.05743722226171
C            4.60735410045032       -1.61080195669575        1.75754487933963
C            4.45755754052838       -0.40367841701552        1.11376657278016
C            3.91567929167172        3.15499228931499        1.76844904754033
C            3.81405397210005        4.42486856061139        1.17385589003476
C            4.30303094359907        5.56359041368507        1.85747680495120
C            4.21365571409828        6.79472460680565        1.30316142141636
C            3.60134164231337        6.96944488832941        0.03849270661412
C            3.45431899859317        8.24013720562935       -0.54580863021118
C            2.81168203942782        8.38685034004894       -1.74311807124537
C            2.28747445058091        7.27253627247476       -2.39652232546993
C            2.42403950396216        6.02750113898447       -1.85275369681503
C            3.09382798214662        5.83297015767360       -0.63392211695773
N            3.25054498602295        4.58568865494820       -0.05784261960873
B            2.56291555467818        3.35030007547852       -0.65505945932702
F            2.55191794410303        3.39490051526449       -2.04221909643439
F            1.27241647114179        3.30390697558513       -0.13595534893419
H           -1.05847204454936        1.18163212058112       -0.06854553176379
H           -0.67356199236441        0.16261182985061       -1.45356763485690
H           -0.04326653830726        1.80622381526761       -1.36887709695936
H            1.34645502375131        1.22079828281746        0.58031470504635
H            0.26064833327758       -1.62061295164989        0.25679174702197
H           -0.05275501168814       -0.54022963580198        1.60684009110699
H            1.57643523536465       -1.15723498740943        1.32718648678525
H            1.12695760534970       -1.61800847377809       -1.84988498490074
H            2.87975379053778       -2.06690766162511       -3.50547382548112
H            4.80314892297738       -0.56330113329525       -3.69513947210003
H            6.18651839096987        0.99664301544441       -2.74844371803952
H            4.26390381389108        3.34600002303568       -3.08963364883397
H            4.70414047960431        2.20606872259803       -4.35080912452373
H            5.92027911480287        3.29484557452410       -3.67489962798621
H            5.20536970088591        3.03987944858152       -0.71433982173776
H            6.84633256653044        2.86281055511291       -1.30221001563387
H            6.12853542489650        1.59547556463523       -0.30876230457584
H            2.95190813595925        1.33106431302938        3.57497881580692
H            3.23412167734009       -0.81589192145870        4.72514923451418
H            4.28447588323910       -2.70837615054304        3.56008026545756
H            5.06279451196387       -2.44109716681248        1.24301183523921
H            4.79087673575787       -0.29763658789857        0.09815862518429
H            4.28042838867289        3.09218859017209        2.77742197489171
H            4.75663634374496        5.43473453439517        2.82512432069076
H            4.59235018928976        7.65735754901516        1.82360720651550
H            3.84724194568125        9.09997672482594       -0.03106854192839
H            2.70086545475909        9.36540248507697       -2.18076987123198
H            1.77025587166441        7.39704403960098       -3.33386803265520
H            2.00450712756552        5.17565114616256       -2.35251688281200
