39
 energy: -8.243440763927 gnorm: 0.000990982324 xtb: 6.6.1 (8d0f1dd)
C            1.22574237762275        0.36364192529015       -0.85760493998649
C            2.65742508007109        0.19679245421678       -0.37302996563528
C            2.71935574311361       -0.70803505845577        0.84751045695811
N            3.53047143430765       -0.30156033072134       -1.45373844345551
C            4.72126899873827       -1.01468935293304       -1.24535208150322
O            5.18208220658464       -1.40686240987183       -0.19364872468009
C            5.32319996779285       -1.19984011261930       -2.57411388833522
C            6.48115936369808       -1.85160138467833       -2.94487353531825
C            6.84151156218917       -1.89135301181325       -4.29572801505520
C            8.02460480598637       -2.55517532096871       -4.74223482441148
C            8.35943280316862       -2.59063036541762       -6.05093158544109
C            7.54403275750576       -1.96354100700731       -7.04440738368283
C            7.86899916835464       -1.98758062916145       -8.40050305395364
C            7.05941149544835       -1.37056122583596       -9.33114683552772
C            5.90997014521320       -0.71524205282002       -8.94310884940399
C            5.53760725148988       -0.66122704654872       -7.59970418769862
C            4.35129379608306        0.00868276489669       -7.16270847620586
C            4.01237564966993        0.04294301453700       -5.85572600075030
C            4.82471928212354       -0.58610843167502       -4.87180223314419
C            4.50532484826339       -0.57690441735767       -3.51028731600237
C            3.36679167992165        0.02109746216255       -2.81040683668107
O            2.47584045216576        0.66966496798764       -3.32188841171942
C            6.01007090837218       -1.25729306538551       -5.26119334891349
C            6.36496635902748       -1.29368477071021       -6.63875868400644
H            0.57773313684300        0.76656483080013       -0.07880348413115
H            0.82074762465136       -0.59778323346079       -1.17120884935272
H            1.18149290115085        1.02911867819858       -1.72032023272347
H            3.06363942275590        1.18679110718031       -0.10687250329102
H            2.36546981767376       -1.70637261693975        0.59290983767468
H            2.10696191719140       -0.32938948169808        1.66626910790592
H            3.74484897511319       -0.81101675289707        1.20386481102390
H            7.09164632247464       -2.32135687190770       -2.19592810282804
H            8.65205827685643       -3.03302281199911       -4.01021916490369
H            9.25475551801365       -3.09735514468803       -6.36631278114670
H            8.76368142980571       -2.49631727241650       -8.71493341539260
H            7.32835536330861       -1.40115994629645      -10.37410538600742
H            5.28594762019201       -0.23717070887879       -9.67808501837359
H            3.72792476659675        0.48857956338254       -7.89666781466314
H            3.12089877046090        0.54695806651135       -5.52421983923735
