35
 energy: -6.759108921846 gnorm: 0.000780796862 xtb: 6.6.1 (8d0f1dd)
C            2.19706234561004       -0.70040962492921        0.66342048099788
C            2.38170779709804        0.05173597777858       -0.64700792653304
C            1.13668366781934        0.06627053836435       -1.52852961711003
N            2.95211252685514        1.41647668675832       -0.42522434192562
C            2.12133941118074        2.52581031677164       -0.13108039005937
C            0.85951245869592        2.39492211228296        0.44399738726695
C            0.03601621374807        3.48866542837907        0.67469438775894
O           -1.21007654097929        3.36895618373693        1.23232768768391
C            0.49437797881155        4.77589853505219        0.32485644496987
F           -0.30584557487929        5.84582081820189        0.52459528429140
C            1.74492517595286        4.92547662941500       -0.20837908949275
C            2.57162767247513        3.82866651628378       -0.42851882037614
C            3.91005118007089        4.05014460438754       -0.94375486313525
O            4.28763484357267        5.16835579820416       -1.26492681098468
C            4.79621936496633        2.90529810748754       -1.03050046401749
C            6.12490736547517        3.09882774295102       -1.39786578975930
C            7.00105515110573        2.04994259070986       -1.44907390011640
F            8.29400100466251        2.21399097768084       -1.80063393401674
C            6.55921308036857        0.75552667201181       -1.11597916974132
O            7.46193919709022       -0.27191417844272       -1.15307533286349
C            5.23460632587778        0.56011399650137       -0.75883924409128
C            4.32126626208976        1.61270191031682       -0.72859897573457
H            1.90883046823126       -1.73817549677367        0.49141274443188
H            1.42621731121393       -0.24820833154803        1.28282461089951
H            3.11774916151529       -0.69840248763529        1.24711456697973
H            3.14524711338997       -0.48536311054868       -1.23289663557434
H            0.28435109645890        0.51718930781694       -1.02688076241757
H            0.84000786672992       -0.94343398882400       -1.81569658081914
H            1.31330558357902        0.63571538768498       -2.44138389596807
H            0.50822433279990        1.43210718020617        0.75299931944647
H           -1.40702541781932        2.43069384143421        1.44383433887533
H            2.10332793304174        5.90992716830447       -0.45309468000301
H            6.46708778438638        4.09098259149904       -1.63369352675290
H            8.33037903407168        0.08597706257721       -1.42651448408925
H            4.94638082473254       -0.43066746409882       -0.46541801802228
