9
 energy: -1.473456377480 gnorm: 0.000298182366 xtb: 6.6.1 (8d0f1dd)
C            1.07587122172072       -0.06519262657470        0.06513322876513
C            2.56493580493890       -0.06239653341131        0.06889244941578
N            3.22259644568805       -0.77596548829388       -0.89031509340170
O            3.15400528947189        0.57206780836655        0.92176463239692
H            0.68100326528555       -0.67087940365014       -0.74904686250489
H            0.69964675836316        0.95072799859024       -0.04559563116164
H            0.69964626331835       -0.46330517090486        1.00633547022630
H            2.75429772870077       -1.30964114688549       -1.60769669975910
H            4.22733722251261       -0.79334543723640       -0.91367149397681
