61
 energy: -15.737783507950 gnorm: 0.000183864030 xtb: 6.6.1 (8d0f1dd)
C            2.99249400283299        0.10688827953069        2.31804964315280
C            3.47017752763341       -1.09494146175340        1.51410605211992
N            2.40598590240353       -2.11430761501960        1.39629515693651
C            1.84649719654639       -2.81072039616717        2.48381821417636
O            2.35240270763752       -2.75443945025587        3.59971465786905
O            0.70086757626688       -3.54058881095510        2.15645293158323
C           -0.00258112831670       -4.25868362104670        3.23729727996396
C            0.91250304002304       -5.31375757961052        3.88502992513263
C           -0.51803261118853       -3.26884936182951        4.29800557856831
C           -1.22014737514927       -4.98764087198977        2.61795672734839
C            3.99342259328787       -0.63215571823981        0.14337188516686
O            3.19472292721960       -0.42570199340140       -0.75236283004123
O            5.36565878236599       -0.43782552899417        0.05577173798871
C            5.73380265169525        0.11804208130395       -1.20978666123670
C            7.21799497320375        0.23523181833988       -1.51471580758665
C            7.87351044450781       -0.89180100568745       -1.99309142577986
C            9.17707601278708       -0.84811934301348       -2.44886142807559
C            9.92447094288100        0.35080299091158       -2.46862560424786
C           11.27428378297415        0.41748029967433       -3.00556143539310
C           11.93147239877381       -0.70836550290258       -3.56412982161599
C           13.21324058975825       -0.62927858331985       -4.08049071520286
C           13.90484589450594        0.56930457856881       -4.06668400367370
C           13.31180582710740        1.73507491498356       -3.52653090943725
C           14.00455263237432        2.96909627941452       -3.50638267280980
C           13.40899509184438        4.10102401418012       -2.97803337155944
C           12.12515373427207        4.04506148330459       -2.46368706889333
C           11.37003629371425        2.84398053821199       -2.45247205919104
C           10.01541554495912        2.77397914233430       -1.92851938396525
C            9.35947298334711        3.90972536216325       -1.39779158781466
C            8.07045869626951        3.83924932224405       -0.90871708770656
C            7.37086981726984        2.64654586555279       -0.93038826545458
C            7.94632337241469        1.46538588590165       -1.45220504746359
C            9.30224557367567        1.52913894139446       -1.94795366906698
C           11.97772670024168        1.66469782246024       -2.99027838048416
H            2.63803440770785       -0.18863280676866        3.31005539045616
H            2.16068628231360        0.60281315659697        1.80903545477036
H            3.78634861399755        0.85017473310473        2.45191443189970
H            4.30681521665588       -1.57885248765004        2.03573522983652
H            1.88879824899538       -2.05326031764892        0.52140842843477
H            1.78914277476236       -4.84513623067170        4.33580890314341
H            1.26513171972208       -6.03926073789881        3.14448242636427
H            0.39129078460927       -5.87173427816555        4.67390238613311
H            0.30924885682526       -2.72114801548820        4.75351214279396
H           -1.06137652316309       -3.78260880227734        5.10182569793174
H           -1.19968226672352       -2.53518699235627        3.85473385221685
H           -0.90499191799263       -5.70895922167944        1.85560816234996
H           -1.90625893077401       -4.27950398321401        2.13994052343684
H           -1.79130055454284       -5.53887222050471        3.37707178234513
H            5.24476667888740        1.09065006227440       -1.29876983336875
H            5.27016151499398       -0.50853617521659       -1.97804137567037
H            7.32810977475103       -1.82528193698206       -2.03676982773205
H            9.62139573751355       -1.76106203667737       -2.81702390725945
H           11.42493711908590       -1.66223841280608       -3.59934388402959
H           13.68280385490275       -1.51528718737556       -4.50309362927116
H           14.90961773518380        0.62295483799827       -4.47401331358144
H           15.01072158184257        3.02168047679721       -3.91061346632352
H           13.95597656390053        5.04216510129844       -2.96931541040338
H           11.69799044958856        4.95309234589090       -2.06186615037472
H            9.86856110253321        4.86257402494934       -1.36649393299582
H            7.60048106744887        4.73132436150396       -0.50391880054896
H            6.37197503239457        2.61652999008457       -0.52228180563475
