48
 energy: -7.903696444045 gnorm: 0.000306529760 xtb: 6.6.1 (8d0f1dd)
C            0.76139052209758        0.05431337043734       -0.01828353126323
C            2.28220965909937        0.07710090893391       -0.09411293917000
C            2.93693371367867       -0.30785303492211        1.18676272564334
C            4.25857719986625       -0.36235055991625        1.36809459789727
C            5.23832333605499       -0.05836984428865        0.35664550036777
C            6.56173003979023       -0.12423173204567        0.57578712410355
C            7.54875563234998        0.17504929893334       -0.42002271534212
C            8.86952250924546        0.10494472053461       -0.18676398153982
C            9.87191695304538        0.40277505283816       -1.17774548446623
C           11.18751965820645        0.33686329344373       -0.95843423448476
C           11.78928403822660       -0.05504141752131        0.34556481115100
C           13.32003446995635       -0.05499206852270        0.34540459494383
C           13.90654422615595       -0.46115874090766        1.69685944378308
C           15.43435674418488       -0.46765466292546        1.71847557830009
C           16.00250474137990       -0.87594643973515        3.07700523890134
C           17.52916105227959       -0.88668973745877        3.11275428030570
C           18.09452489477401       -1.29415286778962        4.46852197647803
C           19.60163530003005       -1.29936829612210        4.48587619452901
O           20.20690052751360       -0.99646061979998        3.47799517533492
O           20.18597521700127       -1.65316245776946        5.66307513416818
H            0.29826289195205        0.33896058070199       -0.96540515383715
H            0.39492659263500        0.74154212570635        0.74633651493324
H            0.39492432259011       -0.94057543929526        0.24079501869416
H            2.62846567055719        1.07719929144102       -0.38615152972179
H            2.62846344314692       -0.59630356239625       -0.88910432822405
H            2.28797568368464       -0.55559314279708        2.01107959255345
H            4.63773518064838       -0.65268167958933        2.33412673714424
H            4.89122026949395        0.23461195438616       -0.61820291736924
H            6.90920172096344       -0.41740576431015        1.55127475320345
H            7.20746328371058        0.46876595148001       -1.39731478120020
H            9.19963905436758       -0.18968730893389        0.79357388625926
H            9.51920339402256        0.69580211060300       -2.15274497625009
H           11.86560448031651        0.57796322107203       -1.76065432665404
H           11.42595933915080       -1.05108996896706        0.62636733822557
H           11.42595806167953        0.62117414411681        1.12895128681690
H           13.68925509146589        0.93871570248308        0.06479971679928
H           13.68925644275281       -0.72936401578965       -0.43652615680237
H           13.53175202471277       -1.45339058065272        1.97588367045588
H           13.53175133350042        0.21285375083883        2.47665759526941
H           15.81247938088209        0.52408291949248        1.44274707306521
H           15.81248009882665       -1.14307286110125        0.94170057123015
H           15.62227660221699       -1.86713442825421        3.35175728465079
H           15.62227576506044       -0.20044861552720        3.85266266509618
H           17.91911227865284        0.10173750898230        2.84151457932082
H           17.91911302214381       -1.56181936377136        2.34154821658525
H           17.73019275908237       -2.28956188280807        4.74123409501504
H           17.73019254435507       -0.61400956263789        5.24480537427895
H           19.50899883249154       -1.85845524986762        6.34615871082017
