61
 energy: -11.577322595579 gnorm: 0.000910242518 xtb: 6.6.1 (8d0f1dd)
C            0.94691894540677       -0.04921563862487        0.39338568541526
C            2.45883861392955        0.03083118381953        0.35237962441550
N            2.96982874259883        0.48283835675883       -0.93800908035383
C            4.30444025995416        0.62952033156630       -1.27454445368644
C            5.30383791332287        0.35644272094040       -0.34628766214959
C            6.65348320697731        0.48923339339624       -0.64544491541008
O            7.57903044575023        0.16253500705555        0.32353108652390
C            8.91429323892390        0.26656337409887       -0.00391235528780
C            9.86385924904254       -0.10872668633197        0.93615005576837
C           11.23475408092451       -0.05500040407119        0.69177664460473
N           12.08323793952856       -0.52049162021310        1.69113858128053
C           13.45162494802898       -0.99859129787660        1.55888615183497
C           11.67647305942982        0.46745918957330       -0.55736518442587
C           13.11567582021209        0.64077785378412       -0.88664956804714
C           10.74178709404590        0.84658699337467       -1.48526830349621
C            9.35581594199928        0.73687558369180       -1.26770045936095
C            8.40309232660733        1.08174012534700       -2.26308857503595
C            8.82550262180377        1.55492438851628       -3.59949538064013
C            8.39643403476469        2.80765886676246       -4.06494618969025
C            8.80901712447652        3.30006094690489       -5.27681790136245
C            9.66989796913891        2.56232128317373       -6.06970459940082
C           10.10167836255042        1.32705992023235       -5.64721902601591
C            9.68511640203359        0.80011877054473       -4.43568469274351
C           10.15665727081205       -0.55403880370634       -4.05303551791534
O           11.27428155495904       -0.91723400114682       -4.37531052711997
O            9.28477728252003       -1.32204749306829       -3.32857764934116
C            9.89991246457222       -2.52191144905319       -2.92580848177363
C            9.14151790118820       -3.18571010255762       -1.79556046140902
C            7.02782291915041        0.94301915685983       -1.93878753164281
C            6.00872206095254        1.19599080224422       -2.87722692610330
C            4.67970533452806        1.05224868110382       -2.57760296889639
C            3.64347008830847        1.32627440025189       -3.60810961490627
H            0.58008849452767       -0.38633426230523        1.36509508534984
H            0.57056846341502       -0.74258828589242       -0.36026983801281
H            0.49727522867517        0.92387220412009        0.19004505886198
H            2.90310035800883       -0.94727448780675        0.57093890648433
H            2.83060738328262        0.71543030549057        1.12370041773240
H            2.23259627650469        0.65656280471470       -1.61822732906807
H            5.04059658224332        0.02070029689591        0.63774595801615
H            9.51336751283326       -0.47753881169132        1.88126634594442
H           11.64926967579024       -0.85287184290944        2.55219537428484
H           13.53804824235818       -1.65837858852163        0.69648826418500
H           13.76710669050283       -1.56133263961226        2.43868220675403
H           14.13880026794916       -0.16250559119495        1.44186687912477
H           13.63177551944121        1.19400610534460       -0.10235749182222
H           13.24123624075533        1.20394995660977       -1.81233056674134
H           13.60698832359153       -0.32138059526241       -1.02963158047463
H           11.08111491761039        1.23086236224893       -2.42948330556408
H            7.75113901799770        3.39672172694010       -3.43606807778104
H            8.47083904714793        4.26814509750698       -5.60817803951078
H           10.00040363907980        2.95424512411358       -7.01754389082098
H           10.77077808682626        0.74267568637137       -6.25576909208911
H           10.92951356048823       -2.27843523226000       -2.62775185571371
H            9.96684986590618       -3.16508449571770       -3.81325434925939
H            9.08393383733615       -2.52085364739581       -0.93296904904732
H            9.60867816359719       -4.11850875146211       -1.47519866148877
H            8.11691922824642       -3.40400642203670       -2.09745791636128
H            6.28580060874363        1.49462557227095       -3.87110458048975
H            4.09376631328333        1.63793098606803       -4.55133499268504
H            2.97268675754870        2.12249515712567       -3.28334841982419
H            3.04725647786278        0.43473643490342       -3.80609526360264
