69
 energy: -12.826405903522 gnorm: 0.000518614207 xtb: 6.6.1 (8d0f1dd)
C            0.96401122718607        0.22367051390572       -0.17064422937411
C            2.47854139660940        0.21586264467797       -0.17444164113727
N            3.03928297970243       -1.08210413075980       -0.53624744694916
C            4.39000980553150       -1.38875458267525       -0.61087538856465
C            5.35157525347930       -0.42191074624091       -0.33914909662177
C            6.71151674747848       -0.69362305211005       -0.40137980948049
O            7.61543072908802        0.29826677002103       -0.12358847301347
C            8.93268810261467       -0.05891425166472       -0.21008039188883
C            9.90783028599860        0.90212042779311        0.05690412935106
C           11.26545544314807        0.63717885497124        0.00078047122942
N           12.17586579291579        1.63257574440503        0.27968325493244
C           11.85268563989728        3.00926327117570        0.63693773564280
C           13.07860789978819        3.86736391237610        0.89281592399856
C           12.69695779207021        5.27483817685158        1.22473613542409
O           12.21292033001432        5.98555462379248        0.36597848685513
N           12.89252749146388        5.71751687857857        2.51482040236028
C           12.34603549785091        6.98682409389648        2.96455446972276
C           11.86935507273749        6.85534414251302        4.39332261747762
O           12.63583741724911        6.42997251355067        5.22834886775204
O           10.59066889164555        7.25646380658872        4.63741612583211
C           10.29713499476386        7.06791000979969        5.98408650910855
C           13.36443762047981        8.13097991036987        2.82331998395249
C           13.88535598862730        8.22371510772443        1.39281425662876
C           12.76665170426689        9.45823005125876        3.28521067970173
C           11.69642495228868       -0.69231799261038       -0.35122661817318
C           13.05123691065037       -1.04863705406063       -0.42894222803600
C           13.43149590596669       -2.32058957736745       -0.76496609264743
C           12.47450148448478       -3.28979644369617       -1.03760369531303
C           11.14535564965717       -2.97466739266913       -0.97037229948391
C           10.72633383000290       -1.68364747306065       -0.62922310114243
C            9.32110959954605       -1.37754322367635       -0.56233015819662
N            8.44054365818191       -2.33818175443578       -0.83198888109031
C            7.13924173819593       -1.99976847397849       -0.75314880010092
C            6.15861111118105       -2.96788243579602       -1.02674754155421
C            4.81553489175110       -2.69444998495278       -0.96467175940595
C            3.81917770558702       -3.75616098553856       -1.26431820616128
H            0.55964813136682        1.20062666277269        0.10171256361796
H            0.57063608519558       -0.50611339319361        0.53843820561553
H            0.56881467959462       -0.03512337075962       -1.15400392953905
H            2.86830195972051        0.49123968109715        0.81246525304646
H            2.86678900938214        0.96158773053705       -0.87786125721398
H            2.32831259151841       -1.78474434167032       -0.72871009617192
H            5.05091231956064        0.57211623217241       -0.07087353863766
H            9.56973851114188        1.88629623149477        0.31685632592485
H           13.17895243837494        1.47174010400457        0.23448166088133
H           11.21226239009229        2.99979085208283        1.52540600281343
H           11.25698356900221        3.44977680621671       -0.17004494805334
H           13.72070830183705        3.87551083410337        0.00697841787075
H           13.67816267522987        3.44155930076225        1.70296256114484
H           13.18285295842662        5.08823011696497        3.26461159822711
H           11.47669363766744        7.20287321757723        2.32829940479569
H            9.26219110790862        7.36083100474471        6.17178441212860
H           10.97385178446006        7.67854686285840        6.58609658471303
H           10.43846026257988        6.01353809415254        6.23335743733751
H           14.20667155163955        7.87498967556635        3.48876514309520
H           13.06483149121411        8.41122983437332        0.70017458508608
H           14.35473526577066        7.28970710751414        1.08311467285500
H           14.61440632089483        9.02647018445355        1.27858344224481
H           11.91468431080114        9.73151215008129        2.66300910550958
H           13.49443115524213       10.26801051032010        3.22588059119924
H           12.41314773376655        9.39678987951189        4.31508093845660
H           13.80675217702138       -0.31395170555771       -0.22092029154172
H           14.47776171032463       -2.57336601357482       -0.81834759791126
H           12.78024627389095       -4.28882187229481       -1.30118736509094
H           10.39520546112427       -3.71743153763765       -1.17861541646637
H            6.48886460930794       -3.95523222990632       -1.29319923131104
H            4.30633837596421       -4.69646472516928       -1.52447221069046
H            3.18624482242870       -3.46951324024029       -2.10474234738070
H            3.17947478545942       -3.94397254230112       -0.40140486818621
