70
 energy: -13.672269715752 gnorm: 0.000993379862 xtb: 6.6.1 (8d0f1dd)
C            1.11237714275426       -0.25188214430253       -0.01283793306826
C            2.62675571687778       -0.26051795657714        0.00271677007644
N            3.19544968943243        0.91443531380311        0.65542289393347
C            4.54833700748559        1.17494653751452        0.81717146374533
C            5.50269711472197        0.28342106484046        0.34001308244930
C            6.86449958487976        0.51130506366900        0.48415914555674
O            7.76174062819316       -0.40100138959222       -0.00625270858966
C            9.08123070300557       -0.09481489864981        0.18083529997663
C           10.04967083637765       -0.97820290578183       -0.29560319102073
C           11.40910300766662       -0.75739432337610       -0.15518887255092
N           12.31253987440175       -1.66607183426192       -0.66076396682387
C           11.97440374027402       -2.86305464958494       -1.42120149099780
C           13.18838508984824       -3.61599160303702       -1.93429968417997
C           12.78146173473389       -4.81021709818729       -2.73604676027394
O           12.37550322344048       -5.80882645996769       -2.17479737323354
N           12.85250936544765       -4.72038919631809       -4.10770203383062
C           12.43021732734901       -5.81777277081293       -4.95853912435685
C           11.96196503199608       -5.28467546655717       -6.29667995871911
O           12.71733966587786       -4.61418031455663       -6.96368214612879
O           10.69327847925000       -5.62265479289771       -6.65909200506303
C           10.39316490358769       -5.04770119580611       -7.88859712475071
C           13.50724169605437       -6.86202821621347       -5.08530882616349
C           14.25337437233602       -6.99908241179655       -6.24297058289546
C           15.24349935639457       -7.95385379719918       -6.33409163536052
C           15.50675705574062       -8.77690436076988       -5.25957163490810
C           14.78579275199793       -8.63579793146863       -4.09257908836397
C           13.79738295296486       -7.67902510688372       -4.00660208322667
C           11.84918170431405        0.43831091817250        0.51828470510144
C           13.20635428602391        0.74021533847350        0.70570914308300
C           13.59567100651439        1.88736219768741        1.34435412574036
C           12.64549847316180        2.78078241772366        1.82242328247023
C           11.31423502634770        2.51530567389138        1.65615579571041
C           10.88608642510055        1.35130439059860        1.00781448761535
C            9.47883029026842        1.09497602066799        0.84401665074072
N            8.60501272636412        1.97944891806606        1.31818637541221
C            7.30131485823703        1.69118488068493        1.13980617479447
C            6.32791003898127        2.58455046118447        1.61686312755494
C            4.98292352022693        2.35539714551535        1.47198726362749
C            3.99461382575234        3.33408544861135        1.99546148175163
H            0.70235357919975       -1.13668105949388       -0.50377848753251
H            0.73135630316313        0.62445227302795       -0.53907726757140
H            0.71067085302537       -0.22036061981487        1.00091237481728
H            3.02314758942764       -0.30697114412846       -1.01824771407782
H            3.00237110203225       -1.15119872616247        0.51967404256080
H            2.48888682892507        1.56142550679262        0.99956501067652
H            5.19494740414826       -0.61496603042119       -0.15856865327839
H            9.70456927753313       -1.86567839134866       -0.78934280480389
H           13.31730692407408       -1.53177979610085       -0.57970154313137
H           11.33773895805513       -2.57114047325810       -2.26337034802093
H           11.36942808050197       -3.52239584268452       -0.78912715162050
H           13.80972627239744       -3.94489970684795       -1.09596511109162
H           13.81544041923240       -2.95653693194786       -2.54197046116330
H           13.23939737170558       -3.90778074555538       -4.59048573526698
H           11.56051114057932       -6.27263678810073       -4.46279728154036
H            9.38636168493414       -5.34512590088318       -8.18914643414668
H           11.12049184457818       -5.38810772703322       -8.62925883633855
H           10.45014460608575       -3.96082201387874       -7.79306445673914
H           14.05531467476361       -6.33642651713512       -7.06754557451610
H           15.81298879872343       -8.05293096632001       -7.24354529609505
H           16.28046138673287       -9.52379672622986       -5.32861453035416
H           14.99820538792188       -9.26732197756778       -3.24549458865170
H           13.25669625676427       -7.52894968442165       -3.08742776000361
H           13.95668737846337        0.06223305555714        0.34348550417415
H           14.64369053111479        2.10031500267631        1.47730076331510
H           12.95848920034946        3.68198804034731        2.32325679888078
H           10.56948130943820        3.20038840833523        2.02191040532978
H            6.66541059167958        3.47672547192128        2.11184421575778
H            4.48852505371675        4.18092628628337        2.47302654652113
H            3.34418684606264        2.87064134656141        2.73788596293017
H            3.37218211027870        3.72635141133300        1.19061536615242
