30
 energy: -6.681300319235 gnorm: 0.000604517373 xtb: 6.6.1 (8d0f1dd)
Br           1.19264721698877        0.10263620580074        0.02865687397384
C            3.07110482669650        0.13069966537638        0.02751225113744
C            3.78893324679385       -1.06505840324391        0.02741142790614
Br           2.88092880609093       -2.70962146901477        0.02831301631268
C            5.24156747486169       -1.13281775153072        0.02665544630734
C            6.29546241630501       -2.13069091266907        0.02683703894926
C            7.65663878979278       -1.81722007944108        0.02621052859655
C            8.16779498544547       -0.45887544742006        0.02512690232533
C            9.44448496359603        0.23733201308038        0.02446635467918
Br          10.98017143128548       -0.84474743361847        0.02478464355114
C            9.56683110161572        1.62661618635020        0.02372237981797
Br          11.26848120328684        2.42250506508063        0.02268940771548
C            8.43163710313087        2.53556806196720        0.02377936186396
C            8.16477966833727        3.96182731564957        0.02405899038580
C            6.87898433147934        4.50746343512847        0.02491084608171
C            5.66690952408675        3.71001621006487        0.02556021860064
C            4.22813005996399        3.89700572125910        0.02646141981056
C            3.31042352784883        2.84396661630284        0.02707694803497
C            3.69442462634652        1.44465755554584        0.02677570160776
C            5.05576924239414        1.32473624934369        0.02568747588100
C            5.97303248472636        2.38069457847315        0.02515751139976
C            7.25979767371292        1.83231517585678        0.02459852100306
C            7.13742912434625        0.43915240048893        0.02481263045469
C            5.77523825636161        0.12551492559754        0.02582545117039
H            5.99151298479993       -3.16189460789415        0.02765566916503
H            8.38097136460627       -2.61164650132245        0.02653905624359
H            9.01652751136039        4.61785913672646        0.02400318617489
H            6.76238141898038        5.57652821915574        0.02522792032821
H            3.86517487285521        4.90930662858901        0.02668829659331
H            2.25751976190387        3.06122124031716        0.02784452392832
