45
 energy: -10.239975368670 gnorm: 0.000686839432 xtb: 6.6.1 (8d0f1dd)
C           -1.65082488407315       -0.51609530603258        0.02104634158812
C           -0.45737791745580       -0.78121219002869        0.00725388543997
C            0.91826851987128       -1.04338031575952       -0.00595696296210
C            1.41637606356625       -2.32074464120096        0.00013011166151
C            2.80269002688091       -2.58986598471531       -0.01320951859282
C            3.72229430064076       -1.58843370822368       -0.03205607641557
C            3.28304495271839       -0.23667330891945       -0.03794329969907
N            4.02490912720024        0.85318915964801       -0.05000382708176
S            3.01876017988228        2.15150730979746       -0.04563047500048
N            1.59169162349701        1.33587896134047       -0.02795410573756
C            1.85854810581875        0.04702733840746       -0.02551728989175
C           -3.01713113654337       -0.18500539502751        0.04140357463890
C           -3.42430029422720        1.14480555727067       -0.02746846269715
C           -4.75904729818226        1.47378253779208       -0.00289887629300
C           -5.73021402860012        0.48340697786149        0.09336099266712
N           -7.12427697783835        0.82760351380508        0.13364009542869
C           -7.79850340139346        1.67824518641185       -0.76726540404817
C           -7.34299059518907        2.36106965745843       -1.89417613774475
C           -8.23108113192145        3.13139626647623       -2.60355888341765
C           -9.56883530602957        3.23411392415522       -2.21254039735721
C          -10.03587576089878        2.56340878349744       -1.10834985863347
C           -9.14529699067296        1.77507932121367       -0.37843549461040
C           -9.31135776493253        0.95880492405531        0.80023960816294
C          -10.41711684937354        0.68723088945658        1.60712192084163
C          -10.25317570440372       -0.13857505699610        2.69269316482633
C           -9.00682867164197       -0.69658799825737        2.98975826313871
C           -7.91062014233314       -0.44015175655915        2.20371500978092
C           -8.06053674141028        0.38999744386184        1.09371218997064
C           -5.32712578059850       -0.84561584748833        0.16036437951397
C           -3.99237004484394       -1.17462560597751        0.13389587671323
H            0.72042554062251       -3.14172989379678        0.01568859508777
H            3.13549247356930       -3.61457879931614       -0.00811091878866
H            4.77770868005621       -1.79297030324551       -0.04169142866002
H           -2.67469593036700        1.91455535007323       -0.09641585475893
H           -5.06886770873793        2.50344727601941       -0.03981446404923
H           -6.31476969015324        2.26996319896108       -2.19472300998235
H           -7.89245995052188        3.66472807775577       -3.47647568504286
H          -10.24352263893861        3.84692397227963       -2.78719026855003
H          -11.06430609312111        2.63503704547237       -0.80157386103656
H          -11.37166312161661        1.12469234140663        1.37392037480078
H          -11.09649137346541       -0.35713013340068        3.32676705531994
H           -8.90514167584453       -1.33646765687791        3.85076691388172
H           -6.94658760965274       -0.85746393262025        2.43242934060345
H           -6.07814895774300       -1.61367174525827        0.22062454089934
H           -3.68548742158711       -2.20522543477713        0.18511832609810
