50
 energy: -9.748809606883 gnorm: 0.000487751688 xtb: 6.6.1 (8d0f1dd)
C            0.78528005067871        0.08646031322517       -0.00269042907886
C            2.29950666616603        0.06583940413346        0.01715972810924
N            2.89507997294906        1.07575758122067       -0.85196822201096
C            4.25459745851347        1.28761372713573       -1.02894268439446
C            5.18485326930643        0.50644890834538       -0.35323902029491
C            6.55230524210559        0.68866225605345       -0.50477139369266
O            7.42157990933235       -0.11183053252006        0.18726800921921
C            8.74920230482597        0.13692692026589       -0.02118177800676
C            9.68874271736135       -0.64200637268461        0.65286869877568
C           11.05484909887035       -0.47007700708574        0.51108934482556
N           11.92500951756697       -1.27757680085647        1.20946752342506
C           11.53548138030899       -2.34417098509733        2.12497265237782
C           12.71178927317745       -3.06975353396870        2.75385790288309
C           12.26980433484386       -4.16283496611744        3.69187747928496
O           11.08297024058908       -4.35683473422739        3.85414360882318
O           13.25825053677698       -4.86875478567189        4.30252827110018
C           11.53278221868685        0.56191591152960       -0.37427309431037
C           12.89928316985851        0.80546895168402       -0.57730303315350
C           13.32466476381881        1.79340644405468       -1.42494792285148
C           12.40300508537213        2.57921050048294       -2.10512299973414
C           11.06338295705193        2.36720829474364       -1.92909195569253
C           10.59839624108388        1.36539038800399       -1.06964423168948
C            9.18292392489916        1.16197268349864       -0.90107345079912
N            8.33503810930377        1.93798716522901       -1.57237104723731
C            7.02275744667547        1.70414030818047       -1.37660549480011
C            6.07323821176932        2.48726917060038       -2.05425587456866
C            4.72192105127064        2.30351307170195       -1.90145155390383
C            3.75946410151839        3.16002844425105       -2.64228432853776
H            0.35646041887309       -0.67452612769817        0.65231156049654
H            0.40450378420659       -0.09137862202852       -1.00934958526928
H            0.40267526996524        1.05519910030876        0.32156247717819
H            2.67602599698707       -0.91527692056353       -0.29491274726671
H            2.67409871913364        0.22973287869854        1.03429524792552
H            2.20404317916778        1.64163683292204       -1.34033791427600
H            4.85410898567746       -0.26769987490947        0.31145449973483
H            9.31380955846587       -1.40484177535108        1.30735467275962
H           12.93428335101386       -1.18111841353084        1.13095844463680
H           10.90836852616012       -3.06098438097813        1.58341398546043
H           10.90274688601652       -1.91874869225286        2.91176472873588
H           13.33805753387156       -2.35810167000290        3.29961462996369
H           13.34368641759836       -3.50006131720940        1.97152064851668
H           14.14655737267540       -4.54828530832318        4.03040187259557
H           13.62788319233363        0.20873719013348       -0.06061375821187
H           14.37928690657079        1.96413983513182       -1.56677029438991
H           12.74459242834327        3.35480885244602       -2.77053856827646
H           10.34060944612276        2.96994346434389       -2.45083225442229
H            6.43464594470272        3.25512623792555       -2.71356683749995
H            4.27599727408813        3.88793701903999       -3.26873656069089
H            3.12040430968435        3.71255065318952       -1.95282075904510
H            3.12360524366026        2.55787031259814       -3.29199819272233
