48
 energy: -9.264372307149 gnorm: 0.000965582439 xtb: 6.6.1 (8d0f1dd)
C            0.92300196375873        0.01435381368907       -0.01040743136067
C            2.43736769252812        0.03072129452655       -0.04472262473968
N            3.03876966575630       -0.63116454826335        1.10850747422955
C            4.39953597545709       -0.77120801407850        1.34177538047397
C            5.32914136790264       -0.26298667262668        0.44094808084321
C            6.69744404264722       -0.38486017070902        0.64304908210096
O            7.56982188607169        0.13406025168663       -0.27830581401956
C            8.89817299524652       -0.03158562886441        0.00310594439237
C            9.84176541918480        0.47319896384128       -0.89155790546320
C           11.20740450431353        0.35880296674444       -0.69467053915832
N           12.08500158249680        0.88996421465824       -1.61412462608065
C           11.71273174860557        1.59801251852667       -2.83499876184825
C           12.91560151286049        2.03901399596316       -3.65811598781450
O           12.55794514323254        2.74261025169519       -4.82957524126072
C           11.68105315689430       -0.31842238485802        0.48631829193834
C           13.04672995874194       -0.48786712024182        0.76034795887828
C           13.46823736289747       -1.13411282829374        1.89217066445306
C           12.54293730360567       -1.63896087453715        2.79727416403939
C           11.20404739566116       -1.49261961405303        2.55793890702961
C           10.74347955161482       -0.83766764573605        1.40986364672652
C            9.32892176020928       -0.69998377081752        1.17857107816044
N            8.47911492486848       -1.20353096933434        2.07067580516307
C            7.16703290783064       -1.04822165783308        1.80629358850888
C            6.21815846527063       -1.55763592833784        2.70868747021409
C            4.86686905501416       -1.43557629926363        2.50443571978340
C            3.90501467957880       -1.99355853522490        3.49065069091423
H            0.48719568029329        0.51267710468356       -0.87877526949529
H            0.54661911785047        0.51594011100936        0.88244321705181
H            0.54335664454125       -1.00834811429528        0.00937010825104
H            2.81178275897200        1.06048985492683       -0.07903057112701
H            2.80824524509353       -0.46191976972559       -0.95108427428799
H            2.35011207165928       -0.99947519766676        1.76161831265493
H            4.99667503482277        0.24280336537862       -0.44452385454878
H            9.47193902356764        0.97466608564099       -1.76464355406346
H           13.09227601907811        0.85866639912017       -1.47649029887143
H           11.10932270828635        2.47045011931201       -2.56649489843518
H           11.06989906208466        0.94645518716635       -3.43430896657221
H           13.53548408521558        1.17814345807352       -3.93800489085241
H           13.55787614295470        2.70382843672096       -3.06882863048909
H           11.93791182655826        2.20525182022781       -5.37267827297298
H           13.77849530332576       -0.10791201260373        0.07167536283710
H           14.52214129007406       -1.25308144322172        2.08358182184128
H           12.88088020030283       -2.14590783912589        3.68621448154617
H           10.47888895365538       -1.88097227075441        3.25160607273209
H            6.58062586270602       -2.05925811513577        3.58738807081025
H            4.42192349816932       -2.47038209882781        4.32431829220813
H            3.26427995577337       -2.74470262182130        3.02730842759503
H            3.27013749276597       -1.20822806734008        3.90248429808419
