101
 energy: -17.984063961308 gnorm: 0.000546944606 xtb: 6.6.1 (8d0f1dd)
C            0.62974185576663        0.44961049140951        0.56706931741132
C            2.02972821863358        0.29892856548476       -0.04760899702686
C            1.98365253015400        0.31079067681796       -1.58244947803152
C            2.99688958842877        1.36662049737486        0.49112379681223
C            2.91679598034538        2.73095221000040        0.37732302812356
C            1.90022701371172        3.43205617891480       -0.28200896774086
C            1.79080613891335        4.80089131115520       -0.37915799012461
C            0.66466033986362        5.33621794279670       -1.03274937744235
Cl          -0.46942957182634        4.24831187418242       -1.71479743331829
C            0.41311989987497        6.71673693486258       -1.14458153962479
C           -0.73888915302582        7.12209434769239       -1.77985451027134
C           -1.17084421824306        8.44445528465993       -1.93791405780941
C           -2.28799803922814        8.83848940977555       -2.62901243001665
N           -2.68672118716553       10.15226839934123       -2.77500580887182
C           -1.95286757331226       11.31589227543990       -2.25858682334643
C           -0.76451120307300       11.66947053619562       -3.13827910006523
C            0.05082847777677       12.84357267561609       -2.60156705448674
C            1.28153865049694       13.14794388508586       -3.45248486549727
C            2.09635888121224       14.32384151495710       -2.93284051811162
C            3.28957596617641       14.58320385053835       -3.81016519376995
O            3.08091766654888       14.98795867383117       -4.93511617524223
O            4.52220903786165       14.32715683294573       -3.29327039058727
C           -3.82540637530130       10.28137518929067       -3.60799238191662
C           -4.50922199164493       11.41135112588033       -4.03767658432084
C           -5.60090468429320       11.25225333561397       -4.86461915813839
C           -6.00990751497518        9.98900688154636       -5.26359938725959
C           -5.32846860746803        8.86074953128642       -4.84217434639107
C           -4.23551505501605        9.01121631876627       -4.01479590688201
C           -3.28702355236971        7.97242914483962       -3.41476992412123
C           -2.59018764781461        7.20064062153125       -4.54560439752653
C           -4.06880205986634        7.03593593505184       -2.48201595426486
C            1.39325301832856        7.70270926571122       -0.56740225137336
C            2.81390535282308        7.12713990095130       -0.42406658350880
C            2.82122028576779        5.72529128985916        0.21259570718277
N            4.00492565650497        0.70106682587866        1.15970464832195
C            5.10225855244684        1.35064879337758        1.89032546072019
C            4.65791285455349        1.84055783724427        3.25915365534745
C            5.76413238682156        2.56128253779448        4.02648306757859
C            5.29450875960020        3.10250775165516        5.37481312569004
C            6.39100522430344        3.81797643819541        6.15125657036012
C            5.87830180589678        4.31468734553155        7.47466375647461
O            5.60588893583412        3.48505490257529        8.31755374062810
O            5.73160947883498        5.65837840682019        7.63155442621904
C            3.81824599038001       -0.70327483338987        1.15888717828122
C            4.57274607061483       -1.71783616566082        1.73378379255902
C            4.16012242335545       -3.02378661466504        1.57499621049270
C            3.01221198472861       -3.32230819384781        0.85703496532158
C            2.25470826510593       -2.31454194579703        0.28657652723590
C            2.66112332513340       -1.00573050700319        0.44011876253945
H            0.14893034420393        1.37734499353786        0.26543630232133
H            0.69069795680068        0.44238105692271        1.65469865018896
H           -0.01565780630693       -0.37308057789145        0.26205293205267
H            1.57003108834344        1.23994295894778       -1.96852456770058
H            1.37017342640579       -0.50778187716542       -1.95661776134885
H            2.98598364252897        0.19393420487437       -1.99272401447789
H            3.68739020218562        3.30802649900309        0.85206268591680
H            1.11792669747023        2.86435353098931       -0.74572403538659
H           -1.35897681495955        6.34075497195768       -2.17295660157230
H           -0.58329504595640        9.21461490143250       -1.47523218796687
H           -1.63150973683905       11.10190320837756       -1.23561171772769
H           -2.63936286104882       12.16259138151035       -2.17838883703967
H           -1.11488603853087       11.88919402778276       -4.15356284693855
H           -0.11853999902321       10.79087851484546       -3.24823231850571
H            0.36049434650443       12.63564180118428       -1.57044889613730
H           -0.58396786804774       13.73508304017660       -2.53556309453920
H            0.98009577143738       13.34943271085321       -4.48767846072772
H            1.92120119856514       12.25924006774639       -3.51199895190489
H            2.41287775586803       14.14485164351525       -1.90109837114060
H            1.47937959930506       15.22721438257570       -2.90749183769693
H            4.46275666494181       14.00544816985468       -2.36640313672125
H           -4.18500868160820       12.38964003815476       -3.73206938909222
H           -6.14132096382672       12.11986201631298       -5.20608420739147
H           -6.86460882834277        9.88425182077758       -5.91136139219641
H           -5.63668696835606        7.87785421266812       -5.15261480829750
H           -2.04289494711967        7.88648418895223       -5.19121203445621
H           -3.31935645407777        6.67276777145772       -5.15880334370451
H           -1.88459613901058        6.46650006896634       -4.16317957057962
H           -4.55669971292520        7.60715219198149       -1.69314438865938
H           -3.42175719314478        6.29953313049600       -2.01046160796793
H           -4.83963874908983        6.49835727910272       -3.03271396041600
H            1.02453455602698        8.03454320967457        0.40998968100743
H            1.42038338565728        8.59917854222069       -1.19842045721541
H            3.44427927666092        7.81247526951585        0.15936909632184
H            3.28219877683983        7.07482726235919       -1.41471653285136
H            2.64431103163287        5.80443830527473        1.29142550526980
H            3.81564501825246        5.27627292220745        0.10342032939870
H            5.48572486224929        2.17688934133455        1.28551676789444
H            5.93332431707715        0.64690274232120        1.98345503648618
H            4.28548685224667        0.99300144846377        3.84632490218315
H            3.79366358960317        2.50499188613245        3.14539025118489
H            6.15785197692411        3.38416467825141        3.41808457877824
H            6.61294405793851        1.88335580188832        4.17498881748601
H            4.89614547014361        2.28463471548298        5.98757765251301
H            4.44807608353876        3.78390866493782        5.22753115890811
H            6.79926822140163        4.64629490887146        5.56477468133255
H            7.22756939375405        3.13704029016824        6.33527627898099
H            6.00715747045308        6.14569268688001        6.82357670159735
H            5.45957937795218       -1.48223606139355        2.29376789361304
H            4.73653854872071       -3.82175210905994        2.01362299625841
H            2.70518781866728       -4.34891706751847        0.74340987753872
H            1.36054384561136       -2.53828525643851       -0.26829359697944
