89
 energy: -16.103743562019 gnorm: 0.000885646909 xtb: 6.6.1 (8d0f1dd)
C            0.96292646484305        0.28496352546801        0.51325617534278
C            2.36829725835065        0.16496555909533       -0.09591401362415
C            2.32425965051835        0.13215660743766       -1.63021916235460
C            3.29085331654046        1.28427373849797        0.41213889837790
C            3.20237573354119        2.62734570995357        0.12682279661923
C            2.11091999482607        3.30718251049454       -0.43148362094315
C            1.95307050143365        4.67643282672248       -0.42044426625371
C            0.76466429121060        5.21378869986750       -0.94683354562824
Cl          -0.35233110549206        4.14335475676756       -1.67672478393432
C            0.43630826404209        6.58030581688768       -0.89227989245350
C           -0.75490123016821        6.98760314056709       -1.44992774324643
C           -1.22870546932052        8.30407281946056       -1.48680085929390
C           -2.33198933642908        8.74552753327204       -2.17328013606652
N           -2.67784557918135       10.07711848461412       -2.29707134307619
C           -1.80934440418645       11.18345435892720       -1.86514764056867
C           -0.48921662286652       11.17850536615505       -2.63414566347767
C            0.64271900002493       11.91048854171164       -1.93420816834725
S            2.25493765709827       11.28264850748321       -2.57457719445829
O            2.21518328503382        9.91435722378213       -1.99507639763573
O            2.04024563301488       11.37955369485954       -4.04202996058445
O            3.19903995609651       12.24369152388361       -1.95845037495832
C           -3.82402785275146       10.26236986607264       -3.10847490192948
C           -4.49010835878130       11.42090791261342       -3.48577926318147
C           -5.60464014850354       11.31435809871749       -4.28951115016180
C           -6.05382685900461       10.07482266870276       -4.71656236600692
C           -5.39155063898025        8.91781263301305       -4.34750499425143
C           -4.27629720815748        9.01563777454132       -3.54309593898287
C           -3.33717033930204        7.93486719489263       -3.00555010405699
C           -2.64526678957872        7.23112848793488       -4.18331146496137
C           -4.11772840952383        6.94715478991034       -2.12749938055599
C            1.38669631759824        7.55305531749239       -0.24500475540455
C            2.84286662836034        7.05791730327129       -0.21242531255113
C            2.96203467863368        5.58931285065147        0.23184329518733
N            4.23321489656336        0.70236313124873        1.25422772974517
C            5.00515917942772        1.35143712003209        2.34750250162420
C            4.63725041565544        2.80993126576772        2.60198873249616
C            5.01210315445431        3.39687356850047        3.93962632403218
S            4.38185542353218        5.13036951921199        3.91082753977415
O            5.03477591416917        5.66165180746207        2.68111511605027
O            2.92189589766239        4.90225220153061        3.72125806298357
O            4.84535048269598        5.62790940691467        5.22689328273652
C            4.12117429951682       -0.71144090800642        1.24151233718775
C            4.89401919491663       -1.67236192723129        1.88017713521907
C            4.57843430619905       -3.00266225344543        1.70687867721642
C            3.50749695113854       -3.37782902657372        0.91111342019322
C            2.73305250803052       -2.42493694376699        0.27401156358976
C            3.04532539037807       -1.09242833251668        0.44006871954281
H            0.44646256502024        1.17957161610617        0.17409074456319
H            1.02358620429022        0.32519799266257        1.59997094907678
H            0.35128185107987       -0.57451093050821        0.24302157416225
H            1.88479068698181        1.03997602066907       -2.03804948752061
H            1.73482988459304       -0.71271694473515       -1.98295038710023
H            3.32982774519991        0.03461299331951       -2.03684534309453
H            4.05088139290658        3.23136350085843        0.37275353057789
H            1.30028325005257        2.73381156637080       -0.83571142668693
H           -1.35039870088477        6.22255063087902       -1.90744259177414
H           -0.66386143836449        9.04178154408481       -0.94854603662684
H           -1.63152443681213       11.06399592924311       -0.79284470992921
H           -2.32878794493542       12.13769158585204       -1.97739708815860
H           -0.63043631769416       11.56614249741881       -3.65142226603178
H           -0.17916394414914       10.13763357404381       -2.79214268460858
H            0.63122819680818       11.71945182260585       -0.86110038377900
H            0.58369863514996       12.99014451820451       -2.07231331596990
H           -4.14084078517203       12.38057766433007       -3.15068860003451
H           -6.13251502488554       12.20451121600203       -4.58876051596630
H           -6.92657974471589       10.01108148664954       -5.34525166879820
H           -5.73109219054643        7.95346167331119       -4.68125520681982
H           -2.08969979024183        7.95202339457443       -4.78161253011608
H           -3.37825577306419        6.75219846089436       -4.83069021338256
H           -1.94809040955322        6.46648424902269       -3.84942360634623
H           -4.60861820268300        7.47246465099432       -1.30949071927898
H           -3.46602696482109        6.18972219947757       -1.69744170361659
H           -4.88605990841936        6.43798258286909       -2.70732420617635
H            1.04073496310514        7.76149894828044        0.77358993281477
H            1.34804095686590        8.50745717292972       -0.78246665376443
H            3.44582084733712        7.70000943043711        0.44547231694280
H            3.28229000787242        7.17602986323443       -1.21086535891578
H            2.84705279619230        5.52247239872067        1.32132022242497
H            3.97529188512762        5.23015762475889        0.01982594219431
H            6.07218965961780        1.24848873925031        2.13217390966502
H            4.81934113635412        0.77266268750021        3.25685718667939
H            3.55040201189813        2.92140685830651        2.48506598164160
H            5.10015233969786        3.44047529049654        1.83260860741934
H            6.09021402225743        3.40188458131426        4.09992940904488
H            4.55058426044280        2.85902122094959        4.76765305041813
H            5.72799127969674       -1.37340029229813        2.48950609682420
H            5.17094975304649       -3.75873842654378        2.19450242886191
H            3.27423994010273       -4.42256583351321        0.78818598774784
H            1.89658901196599       -2.70905023185172       -0.33938907554729
