80
 energy: -18.050268752380 gnorm: 0.000685265270 xtb: 6.6.1 (8d0f1dd)
C            1.07567414256288       -0.43141780184040       -0.16366558191643
C           -0.07496335666203       -0.80972503166933       -0.34476382353969
C           -1.39786236215693       -1.23994587178335       -0.56096247635194
C           -1.70641024092470       -2.59592290580982       -0.61539806928490
C           -3.00204102013913       -3.01516875663213       -0.83122171980883
C           -4.01081502015747       -2.08784569445790       -0.99609856894526
C           -3.72174588784543       -0.73934382373161       -0.94456833233939
C           -2.42679205344545       -0.31804762611834       -0.72896637164979
C            2.38754881054730        0.00529683208802        0.03477339304578
C            3.00259998567734        0.78557778870857       -0.94769167880494
C            3.64325670738545        1.47573531257471       -1.73057291964734
C            4.46957594616611        2.28881148017836       -2.52806644290565
C            5.47605633143447        3.04585588870536       -1.93673453014095
C            6.29983621987975        3.84275757326929       -2.70127301393556
C            6.13202853225927        3.89602554764155       -4.07018554364793
C            5.13821802005963        3.15094368847031       -4.67255704381628
C            4.31295436348850        2.35285677651814       -3.90881652941851
C            3.07924597735164       -0.39360621823259        1.14615594330689
C            4.44693324466178       -0.00687804072232        1.47698168690190
C            5.43041991260105       -1.01575425294927        1.72021295934586
C            5.09051967692872       -2.38508283180533        1.67198864848552
C            6.03422260647425       -3.35921546129022        1.81918497646991
C            7.37146575986633       -3.01433057825859        2.00461266713342
C            7.73802859981951       -1.70164466749679        2.05838266661722
C            6.78984605044401       -0.66205713484191        1.94586884429823
C            7.18585819878422        0.71252717762759        1.99525495392012
C            8.55472612908262        1.10146261498218        2.31417948881070
C            9.26852354050837        0.69245908747328        3.40777597023289
C            8.68462840481061       -0.10874612835863        4.39247393659293
C            8.08303481970279       -0.81193767017096        5.19449433507716
C            7.33493957667539       -1.66553094103189        6.02620023027264
C            6.42782931801079       -2.56083129606965        5.46838559900541
C            5.68751517795195       -3.40446543435761        6.26751314171363
C            5.83933235019437       -3.36615522718526        7.63859181799749
C            6.73292612142211       -2.48162503968634        8.20824100000504
C            7.47541910541657       -1.63753180190462        7.40986292875065
C           10.58170933895497        1.13650293605230        3.58001310610779
C           11.73429158903432        1.52336952531762        3.72764889742297
C           13.06010078712444        1.96623848677632        3.89464911756087
C           13.37208256195034        3.32104930847221        3.83137377529938
C           14.67126652617606        3.75282297856979        3.99501150028472
C           15.68011695307299        2.83936689523205        4.22436957852709
C           15.38758767603807        1.49219825892378        4.28974157649423
C           14.08910035370642        1.05835343551491        4.12641785388726
C            6.20230643166842        1.72134742150553        1.75241528869823
C            6.54185307781625        3.09087889627923        1.79885676118836
C            5.59862467525420        4.06458743171331        1.64617782061535
C            4.26240044674841        3.71933288121926        1.45423547927747
C            3.89588655394116        2.40659176541539        1.40297219126881
C            4.84343453606129        1.36753682348267        1.52464133487981
H           -0.91582572092962       -3.31561957624248       -0.48730344377729
H           -3.22691361243749       -4.06846678701304       -0.87200034287679
H           -5.02323772311065       -2.41640008814565       -1.16558316087865
H           -4.50882837439984       -0.01444662252778       -1.07372987097028
H           -2.19592307482217        0.73293801150278       -0.68932365717709
H            5.59750790401503        3.00228539967367       -0.86839898038965
H            7.07482456042711        4.42432649047250       -2.22933441183846
H            6.77658300904134        4.51902282665989       -4.66866362991001
H            5.00749883786311        3.19225821129757       -5.74160545451613
H            3.53742606766659        1.76826936725632       -4.37355595251035
H            2.58146335001659       -1.09375424682124        1.79954997694340
H            4.06721255939090       -2.66426876380305        1.49391212353800
H            5.75045513737330       -4.39813603354526        1.77584560355361
H            8.11543035176761       -3.78795402813578        2.10311171957601
H            8.77544180492021       -1.44635364342148        2.18231950564701
H            9.03844936602074        1.81319747502825        1.66283184096659
H            6.31631734505887       -2.58572926461663        4.39835539774555
H            4.99116254621454       -4.09480112398261        5.82128473991675
H            5.26101114216424       -4.02687402779816        8.26371734256752
H            6.85002524120967       -2.45036422209343        9.27891736599812
H            8.17359048356671       -0.94560628476169        7.84889853946471
H           12.58156517130536        4.02985867528735        3.65224272835925
H           14.89898297553519        4.80506111950025        3.94390810494660
H           16.69543244642978        3.17775151906738        4.35242795734237
H           16.17485906519431        0.77818777416822        4.46867924197506
H           13.85575523536812        0.00839592036570        4.17664524799593
H            7.56448728906696        3.37103368097511        1.97914368941651
H            5.88213183757232        5.10360367288168        1.68765748948490
H            3.51926579880459        4.49267260085734        1.34838479258529
H            2.85956328810317        2.15066534473953        1.27177826402115
