91
 energy: -17.517199409191 gnorm: 0.000582506363 xtb: 6.6.1 (8d0f1dd)
C            0.73212156981602        0.48645726606983        0.56463759364610
C            2.05231902508550        0.11498532550085       -0.12762426287739
C            1.85472149001818       -0.15521016662462       -1.62566485342420
C            3.12656525180420        1.18761869865003        0.10955129645130
C            3.10621706941069        2.51653539154867       -0.22673371535863
C            2.07919605228007        3.17205957350503       -0.91474095946726
C            2.04125083607591        4.51477407778750       -1.21591193294641
C            0.89410949366917        5.02780239000084       -1.85017036452877
Cl          -0.38788566782146        3.94819286407860       -2.20400634657580
C            0.73280467477144        6.38615034236103       -2.18372818930813
C           -0.48499354022219        6.79934020199845       -2.67576345069333
C           -0.81540733262433        8.11765432125792       -3.01009090372887
C           -2.06254579685404        8.58797132537451       -3.33196846821736
N           -2.35225952929764        9.91041731851953       -3.61357709977735
C           -1.36786442796157       11.00404295194278       -3.73115721220540
C           -0.37421127205797       11.04089217453897       -2.61546375839545
C           -0.79226627175340       10.91269502047072       -1.30153209194462
C            0.12554397811537       10.85784748559343       -0.27436796652332
C            1.48012161025985       10.93405191252922       -0.54089190188033
F            2.38820134918399       10.82345444477204        0.46375954292822
C            1.90129307225750       11.08760810299977       -1.84848794791445
C            0.98449455040183       11.14049722891353       -2.87591998741786
C           -3.73471197730616       10.11253847847465       -3.85818728221234
C           -4.44053209007138       11.26493632217947       -4.18176074901244
C           -5.80409129707768       11.18084285762163       -4.36829093173092
C           -6.46449981775404        9.96923781322579       -4.23573531423438
C           -5.76729439958576        8.81825987245573       -3.91411099367889
C           -4.40322460715336        8.89467731926590       -3.72646864305428
C           -3.38579130831726        7.80917062230751       -3.38013362920328
C           -3.36836327265088        6.74557589822214       -4.48779854826521
C           -3.72413383340709        7.20094087122933       -2.01094892189446
C            1.85151088428046        7.36375310427277       -1.93062665526176
C            3.22593389578437        6.69731933931954       -1.74090938496085
C            3.16197937768507        5.44839416224379       -0.84399796294356
N            4.15564451488830        0.58820382799675        0.80670257998595
C            5.31685633775632        1.31303875902865        1.34685320267135
C            4.91253495988715        2.33830969939890        2.35534800590505
C            3.95049216124190        2.03185852731723        3.30253567998408
C            3.53856477379537        2.97492538946543        4.21871074426997
C            4.08328054466346        4.24544346699892        4.20658223369089
F            3.67087072195305        5.17902418222978        5.10327276808308
C            5.04918614066392        4.55486410373537        3.26679403661739
C            5.46215987751573        3.61115493262733        2.35068304622582
C            3.89309972148366       -0.77536674465684        1.09055935598366
C            4.64280264064540       -1.72099431910308        1.77850629370331
C            4.14165055170606       -2.99861130690106        1.91067597255253
C            2.91147520634366       -3.33732390725725        1.36830863496502
C            2.15944488411001       -2.39831703244512        0.68451509669544
C            2.65325391844638       -1.11796371942731        0.54884598981611
H            0.27802171329289        1.37263329141111        0.12698759929448
H            0.90154766643405        0.68485084686993        1.62235844558162
H            0.01313359718694       -0.32804976850303        0.48680703393919
H            1.46232704132864        0.71663706850325       -2.14494649449892
H            1.15828801958466       -0.97822506405521       -1.78103543216730
H            2.80227204775278       -0.42455453553199       -2.09075777697404
H            3.93834325497333        3.10931473728108        0.10166976614432
H            1.23128111881443        2.59366013784742       -1.22464073966926
H           -1.24012575384439        6.04455873988789       -2.77382914649248
H           -0.02487574270084        8.83967501863567       -2.96599764431329
H           -1.89573744098108       11.95876530805740       -3.76931723506534
H           -0.85829201294973       10.89152691270132       -4.69154571352036
H           -1.84530666203637       10.82580726811450       -1.09594234973021
H           -0.19319211007206       10.74163920812057        0.74617540018557
H            2.95668538252713       11.15279628317166       -2.04500861725490
H            1.32119580808477       11.24066695512812       -3.89355577113326
H           -3.92869808672563       12.20395139426282       -4.28940563151504
H           -6.36236571953528       12.06681212496674       -4.62288356635291
H           -7.53055633164101        9.92234393150142       -4.38584977568127
H           -6.27182732713187        7.87362860664067       -3.81114575713302
H           -3.13341597143049        7.20245967111986       -5.44840325954509
H           -4.34100557704512        6.26290449469147       -4.57444000442201
H           -2.62886840848450        5.97135894576085       -4.29578358074411
H           -3.72774347313889        7.97371063499335       -1.24310158766958
H           -3.00439274095922        6.44019874669285       -1.71644833859218
H           -4.71022268460505        6.73851262229056       -2.02682049342745
H            1.60208588975247        7.95878550642501       -1.04414605319754
H            1.90235839117659        8.07543936401191       -2.76331494703951
H            3.94276200399319        7.42179459862019       -1.32970168889263
H            3.62862864523790        6.41507663670705       -2.72152942969873
H            3.03734844569201        5.74678059098581        0.20356271146858
H            4.11697330728180        4.91200692074387       -0.89162549163061
H            5.84817628559398        1.77926738869752        0.51315835303306
H            6.01308439307777        0.60362400008173        1.79810361752572
H            3.51539248725314        1.04742709058496        3.30128616654389
H            2.78671613913415        2.74242766728221        4.95176679031805
H            5.46826056808667        5.54543003405396        3.26695832219066
H            6.21331520725561        3.85937595803374        1.62055286090338
H            5.59618807182397       -1.45680437156145        2.19886861768112
H            4.71257416175793       -3.74253023415970        2.44173410078836
H            2.53583127880696       -4.34095083381906        1.48149069332972
H            1.20240042327408       -2.65252466892041        0.26390440289735
