108
 energy: -19.894013674302 gnorm: 0.000818751781 xtb: 6.6.1 (8d0f1dd)
C            0.74411074895767        0.34565686940313        0.58874267237193
C            2.06216900247084        0.22562449491874       -0.19229092042099
C            1.82708462209768        0.19965142819877       -1.70895307023008
C            3.04478716695416        1.33983502739691        0.19918063771378
C            2.88799368717935        2.69821215709719        0.09361432929859
C            1.74567272623933        3.36000083934343       -0.37616637594205
C            1.52866299599093        4.71468129852878       -0.31909543559692
C            0.29903643346370        5.20139741971034       -0.84277635124573
O           -0.56443618663011        4.23506936321998       -1.38484870447744
C           -1.95360172129510        4.16800335334125       -1.11074364253835
C           -2.79256483271759        3.92048324005032       -2.19662685293845
C           -4.14682712072427        3.78017755533363       -2.04022872222777
C           -4.71969032941371        3.85719521457893       -0.78391103231866
C           -6.19345650949204        3.63875958392748       -0.60514954257312
C           -7.01930106905402        4.92676304814022       -0.60625920131087
N           -6.91506153381091        5.65656360391378       -1.78569364082862
C           -7.02534954495661        5.24896593536868       -2.96204941514317
S           -7.11814884802877        4.70897489243602       -4.44163602401011
C           -3.89674413023519        4.11435820711949        0.30204070869276
C           -2.50778396101091        4.27000310858022        0.19880275637998
F           -1.68916866266126        4.47028337585779        1.37682366706316
C            0.01119042423114        6.59421322545056       -0.86953281445776
C           -1.15335329414820        7.03642826660324       -1.44693387741512
C           -1.49228956981499        8.38028141464876       -1.65674847193568
C           -2.71276857366235        8.83453234476658       -2.08210980227514
N           -3.02444752796287       10.15753516859527       -2.32568537198703
C           -2.04811632008780       11.25214363387585       -2.23854375952498
C           -1.05408314162968       11.22693699257410       -3.40486714297139
C            0.29769103199748       11.84865371897868       -3.08079925056092
S            1.28891084296243       10.76818266488791       -1.96290913718067
O            0.44365580552445       10.68816536419237       -0.74173834636477
O            1.31351627211530        9.47934956952219       -2.70715575492387
O            2.56208683669887       11.52150986141804       -1.86326193978820
C           -4.40036556977561       10.34212713977987       -2.61704352992755
C           -5.13383031309240       11.48624164204484       -2.90136799954649
C           -6.49364126737254       11.36986195604038       -3.10337931010693
C           -7.12440922864371       10.13703847910642       -3.02006987059150
C           -6.39968557505216        8.99430569227062       -2.73956204600678
C           -5.04046698300669        9.10429081993794       -2.54748560010480
C           -4.00424313089249        8.02867383735764       -2.24256527008423
C           -3.92135171245982        7.05685721217213       -3.42869073854812
C           -4.35999760544677        7.32730533607614       -0.92745267359900
C            1.01182533167997        7.57871988544314       -0.32705728691685
C            1.92590425269107        6.98291552482443        0.75263240458750
C            2.52985886779190        5.64282403789215        0.30991158114662
N            4.13698438160927        0.73291174011294        0.78983289451318
C            5.18437761768408        1.46986581727390        1.51312016153176
C            4.61351336082902        2.18063260394604        2.73787735367314
C            5.47770075755793        3.31837829429829        3.25388122077776
S            4.42697888137140        4.48043238192507        4.22712884729699
O            3.56245530645882        4.98390865950055        3.12643256792004
O            3.78513773586755        3.55446999313355        5.19548256534540
O            5.44982861487472        5.41819987762933        4.74569704774351
C            4.01125546765794       -0.67694350143898        0.83400881487654
C            4.86512368637646       -1.64791387054731        1.34058240490595
C            4.49519199892460       -2.97222011360232        1.24640221933818
C            3.29260692249000       -3.33132334906991        0.65833915099099
C            2.43647116261342       -2.36797857138172        0.15568863648568
C            2.79924079581330       -1.04100719152726        0.24557331831551
H            0.18936879246682        1.24108998174917        0.31834199099997
H            0.94052249828920        0.38467973760015        1.65935999086419
H            0.10256854922083       -0.51277285786584        0.39609259612982
H            1.33829198156449        1.10741865598811       -2.05609362819231
H            1.20038359128833       -0.64581178544858       -1.98863068842783
H            2.77441571221257        0.10553284375195       -2.23798570365543
H            3.70643110319209        3.31065219593932        0.42262470784501
H            0.95570339526046        2.77420304125660       -0.80505942539957
H           -2.34457702213270        3.83314475000022       -3.17051981370904
H           -4.77789769143518        3.61015087010684       -2.89520467986590
H           -6.36124113750763        3.07980766538808        0.32262074557424
H           -6.55156074171387        2.98532434144503       -1.40779410801722
H           -6.71161227069662        5.57072072876313        0.22538482873465
H           -8.08136978276501        4.70617861973507       -0.44184896278380
H           -4.34100833508514        4.17835899108556        1.27889065894248
H           -1.83846126172928        6.28850033126635       -1.78806750725407
H           -0.73471886314263        9.11709940107228       -1.46526320557466
H           -1.52464129502882       11.14807418008168       -1.28360199335307
H           -2.56915441577806       12.21100614377411       -2.18127463323454
H           -1.50908029649072       11.71267106817642       -4.27782700712050
H           -0.89431602813999       10.18572210979187       -3.71315364223718
H            0.17817843258300       12.82066136666689       -2.60290541407762
H            0.89462276053868       12.00352315238904       -3.98073502799254
H           -4.64460085186819       12.44161470353045       -2.96093975024453
H           -7.07488264096271       12.24977919566503       -3.32348480128969
H           -8.18877174015406       10.06890023952977       -3.17292516343004
H           -6.86762512168102        8.02981239557806       -2.64625847070528
H           -4.87113620889197        6.54571331558503       -3.57365562173759
H           -3.15425857524746        6.30136610398728       -3.28638842349977
H           -3.68883352658368        7.59761975290843       -4.34494206035408
H           -4.41412254438127        8.04893353301402       -0.11357740639022
H           -3.62227485179217        6.57583056711600       -0.65959697604739
H           -5.32629842370544        6.83957777936217       -1.00810676416222
H            0.48793144911886        8.45376698829034        0.07753970873579
H            1.61450119567627        7.95644905657361       -1.16231491074239
H            1.35327193184596        6.83347186049809        1.67649920621787
H            2.72225482634291        7.69318445200738        1.01602698509242
H            2.97996041451180        5.14998081036568        1.17973597883928
H            3.34716570242303        5.81677219607035       -0.39900926888164
H            5.62133276320414        2.19159409971606        0.81733735663593
H            5.99672601892205        0.79485955794863        1.79170624197718
H            4.40022089331014        1.46133715523556        3.53952164252969
H            3.62665214706498        2.58673298199499        2.48054060347283
H            5.90744267021328        3.89110783221171        2.43179947682904
H            6.30481810431807        2.96270217557236        3.86865653876629
H            5.79768366919262       -1.36628627080286        1.79492104486554
H            5.14827871616470       -3.73645916382520        1.63366121521725
H            3.02012829315351       -4.37178487884189        0.59359835417511
H            1.49950853877148       -2.64003854757110       -0.29691184840054
