120
 energy: -22.642396863729 gnorm: 0.000639045659 xtb: 6.6.1 (8d0f1dd)
C            4.72162860437461        1.99237108795492        3.99998906433635
C            4.07798911048995        1.34758820554743        2.76251092032652
C            3.38003646990300        2.37789969964266        1.85561808525220
C            3.09101753329416        0.24811352742000        3.18225637324700
C            1.90217530973463        0.37242641211584        3.85945369294027
C            1.36089589809747        1.55022677163625        4.38647897968879
C            0.14029998706576        1.69427518492866        5.02474056134727
C           -0.84857448042760        0.67387650746073        5.11464738637683
C           -0.77554032009526       -0.59957924526403        4.33930759071916
C           -1.36912488889366       -0.67710342982613        3.06804283512001
C           -1.72298768926891       -1.88948177268366        2.53112107584487
C           -1.48010335329325       -3.06727076592904        3.22885805337500
C           -2.12372307891043       -4.34005632513710        2.78959655296225
O           -3.34187379966511       -4.38049752318995        2.74662470272138
O           -1.29887489394346       -5.38213069191613        2.49168350634356
C           -0.79113640132904       -3.01277829397090        4.43591671202273
C           -0.44953215974871       -1.80316758263998        4.98647035769208
C           -2.04632442656521        0.86940683870159        5.86685530878716
C           -3.03319282798526       -0.09402624347214        5.77031867401387
C           -4.29934535145644       -0.09797024587465        6.35751219316819
C           -5.25249402796407       -1.06006450030834        6.11029710416655
N           -6.52037939015699       -1.07457992737772        6.63819301547313
C           -7.05227857284846       -0.03020595121303        7.52960016135789
C           -7.22858440034671        1.30955724490539        6.79381703462869
C           -6.65698190818477        2.50176430923015        7.56694305438751
C           -6.50343775452304        3.75513809315766        6.72527733303386
S           -5.33997455728084        4.91718386427179        7.55821979352076
O           -6.01182878173950        5.11534657368043        8.86809902152875
O           -4.11322220127571        4.07666326195342        7.56320176867609
O           -5.34076778776478        6.05002755591685        6.60220845865863
C           -7.28891647002445       -2.16263706152188        6.15729347199480
C           -8.61808178806554       -2.51843128440780        6.45011601587136
C           -9.15331060183268       -3.62506531566570        5.87040085739881
C           -8.40109684651988       -4.42774351536096        4.97321663935768
C           -8.95825145544311       -5.57521101510197        4.37343637451882
C           -8.22817535101430       -6.33577395478804        3.51027424698339
C           -6.91013816657485       -5.98805167599942        3.20240664623395
C           -6.33563359398632       -4.88773155828257        3.76066436384055
C           -7.05952755008896       -4.07450727097418        4.66486762558191
C           -6.52614477964365       -2.91885611207486        5.28619613975464
C           -5.14563140563385       -2.27182407055709        5.17058011808913
C           -4.91689053211227       -1.81299505097012        3.71875313827488
C           -4.06924560304682       -3.25162410369575        5.67025562486657
C           -2.26017459038981        2.09222434643913        6.71144991793392
C           -0.99732611784969        2.94273211282714        6.91062385714578
C           -0.17639210895436        3.04310137759136        5.61705831461925
N            3.57315526072803       -0.94271103603892        2.69228767705154
C            2.79853783378163       -2.19571979443482        2.62081436961895
C            1.66202808248548       -2.07879980014663        1.61100291677624
C            2.13075263722279       -1.42449597379558        0.31394023770544
C            1.01322359917191       -0.96195287280086       -0.59776230121496
S            1.71721890989176        0.25294772264454       -1.79272186256427
O            2.22281678571877        1.27148787640810       -0.83299978264658
O            2.75389868376217       -0.57356230576394       -2.46501051208652
O            0.50876962506805        0.61197103365899       -2.57156568237844
C            4.77491889601183       -0.76500592166811        1.96388030564088
C            5.52818808312303       -1.71845733468541        1.25319012788454
C            6.62078136268935       -1.31792863400730        0.55330100951492
C            7.02078366984695        0.04225129814121        0.52862637745686
C            8.15134184225064        0.45708393187030       -0.20383410032414
C            8.52705182848096        1.76633276437986       -0.22495996683935
C            7.79453157898615        2.72257581836209        0.48342800925497
C            6.69610861222811        2.36017892838343        1.20173988974245
C            6.27087362795476        1.01236983918390        1.24752579743113
C            5.12968905373553        0.57139198610104        1.96304732849290
H            5.48595691813067        2.71416490154187        3.72083510387476
H            5.19432785205694        1.23042318619481        4.61830302033607
H            3.98827536688966        2.51025952309728        4.61339031455633
H            2.54721065937219        2.86184649334921        2.35981369109594
H            2.98898132675020        1.89710520555107        0.95990684039334
H            4.06596734307684        3.15738224227837        1.53312582594144
H            1.35562641263522       -0.53455555362026        4.01296449568904
H            1.96246675268439        2.43711281881992        4.31746507547873
H           -1.63545652728360        0.23594693852055        2.56354598914794
H           -2.25590584558290       -1.94053884676684        1.59706389388363
H           -0.35757464789190       -5.11729241299966        2.58893943102354
H           -0.60774846955916       -3.92719301057034        4.97353948317470
H           -0.00946313308072       -1.76147745559324        5.96822600564937
H           -2.80988875755381       -0.93126827606464        5.14165007161570
H           -4.54893923208380        0.70890328640593        7.01695930625102
H           -6.34992231421660        0.07526085095229        8.36179346291777
H           -7.98759271217625       -0.36953542695192        7.98208226786225
H           -8.27979057083265        1.48683436840143        6.53724159486666
H           -6.71661223526277        1.23842843915325        5.82661002752878
H           -5.67005043956524        2.23464185266908        7.96533157803139
H           -7.26200323483646        2.71209111519202        8.45834418182642
H           -7.45808744981638        4.25287379519823        6.55437537578721
H           -6.08025156956951        3.52320322023585        5.74778931124093
H           -9.19877390333621       -1.91669017519955        7.12492239448330
H          -10.16851934559141       -3.90878511109922        6.08726701070944
H           -9.97375704680504       -5.84398139729167        4.60713340459257
H           -8.66690299234460       -7.21043337975946        3.05915603905211
H           -6.34457919658921       -6.59637348908298        2.51553896972140
H           -5.32143284697263       -4.64106117377369        3.49899339277696
H           -5.76736879315686       -1.22867715162159        3.37020694714507
H           -4.79375537413777       -2.66021012831309        3.04735876649064
H           -4.03313306270822       -1.18976261823723        3.62020729337971
H           -4.33718233903248       -3.63576916080185        6.65343275648389
H           -3.09548693724436       -2.77885928020916        5.75933477516191
H           -3.95917441057680       -4.09943530009282        4.99762245411393
H           -2.66327767713925        1.79112944363537        7.68623376474218
H           -3.04392958352838        2.70692745459101        6.25277243066997
H           -0.37798685105424        2.50122601248726        7.70046212890291
H           -1.27152629857560        3.94361942521560        7.27337105306890
H            0.75362159782752        3.59606161323769        5.79772391363914
H           -0.73007420553957        3.62945651946829        4.87450221904334
H            2.43182451382300       -2.44765260263421        3.62019889033795
H            3.47629790797148       -3.00459853100915        2.34009225562855
H            0.86509566028649       -1.46081291311874        2.03643056582633
H            1.20074477417350       -3.05266022604022        1.40893364805214
H            2.82067281355231       -2.08401429604976       -0.22848252791678
H            2.73587585785584       -0.54545475843392        0.57208519151443
H            0.22808083242622       -0.45386402245600       -0.03761246589258
H            0.55036249399994       -1.78928823582970       -1.13592086647981
H            5.23276064359015       -2.75144140389408        1.25865842314121
H            7.19829162506424       -2.03617333412055       -0.00250924826724
H            8.71420341344956       -0.27771105766249       -0.75290020905345
H            9.39154590122938        2.06935670765060       -0.79234111113171
H            8.10272461103854        3.75476779069771        0.45565000269041
H            6.14714985442183        3.10894151181371        1.74136882652616
