108
 energy: -19.849075689454 gnorm: 0.000730912513 xtb: 6.6.1 (8d0f1dd)
C            1.06318787786607       -0.11817290263249        1.41081830171055
C            2.30226330368360       -0.26737567353589        0.51399474756442
C            1.92633465231087       -0.31432272331810       -0.97436856342395
C            3.33349599416131        0.83773933329928        0.79403038290794
C            3.19397695814452        2.19746463124824        0.64792122548353
C            2.03858243152636        2.86326934864066        0.22720036756292
C            1.89107795126610        4.23171547051037        0.11874934301138
C            0.65661155002187        4.75594211583427       -0.34352772936071
C           -0.48168873855794        3.84970138024187       -0.67799647038876
C           -0.75274372622343        3.52793670494366       -2.01722256853619
C           -1.99028591370736        3.07003495380498       -2.38975963178907
C           -2.99416475895847        2.90205433933419       -1.44314526664763
C           -4.39872644366644        2.69190605233271       -1.89282189570361
O           -4.86047532438733        3.48236369945467       -2.69847999240249
O           -5.07876101882113        1.64112265065219       -1.35616716166640
C           -2.70569293455431        3.11290299096800       -0.09874803388012
C           -1.47113520848894        3.57642920948139        0.27997687822651
C            0.44545056144083        6.15383201314387       -0.51710922914352
C           -0.78381894627085        6.56531104365988       -0.99689210413623
C           -1.21362684815513        7.86166927040201       -1.28787619425298
C           -2.46485064062977        8.16136614249877       -1.77609272037902
N           -2.90531538976388        9.43219382709072       -2.06683862383152
C           -2.08215577227053       10.64674217380146       -1.99362886783703
C           -1.22587954918120       10.81404948409429       -3.23797006394720
C           -0.29470692832563       12.02205008708049       -3.16860272152450
C            0.57739194264311       12.17694349645287       -4.39608690838954
S            1.69417416364358       13.62942917521109       -4.18647128038031
O            0.68501317894961       14.71348726462440       -4.05956839808094
O            2.40137029822405       13.22822488128199       -2.94157166811693
O            2.46462304162518       13.56211632066213       -5.45077910104385
C           -4.21963086053284        9.44321062619539       -2.59631198060233
C           -5.00641225393098       10.49526697323917       -3.04643435808789
C           -6.26675742951281       10.22026755044608       -3.53231361807603
C           -6.74256818344667        8.91914177980547       -3.57602328093548
C           -5.96090432738327        7.86733682164601       -3.13367851560277
C           -4.70050922480260        8.13477808339305       -2.64359726649736
C           -3.61435452475085        7.19409668622550       -2.12491503516140
C           -3.21848028616402        6.22025409264445       -3.24715594830775
C           -4.13121900265244        6.44965561917555       -0.88362469453698
C            1.53104942868386        7.13777495609536       -0.18938009909721
C            2.54881024071070        6.58922259297575        0.82355274396646
C            3.01536364085432        5.16712063579473        0.46884776584654
N            4.47070640339308        0.22491260320013        1.27117392956419
C            5.63612701359071        0.94288116029490        1.81236127811720
C            5.30642972605898        1.60078472397215        3.16350918847871
C            5.76015538633786        3.05930253682045        3.25501768567621
C            5.16542374714380        3.80581290839108        4.43475691354182
S            5.33659552718024        5.62227678534258        4.16802552155975
O            6.80812987792680        5.74736855222904        4.01349092715146
O            4.52777977895661        5.76510619004690        2.92962634543047
O            4.71973844389677        6.14690099215334        5.40876211509672
C            4.33056176141392       -1.18230146895170        1.35500449617519
C            5.21714605259335       -2.15709160047904        1.79360815742671
C            4.81997944302431       -3.47654906289183        1.76512633012519
C            3.55923490145901       -3.82800739350683        1.30977846904408
C            2.67093222755530       -2.86049954544135        0.87631484799246
C            3.06000311743127       -1.53807741900522        0.90060607825188
H            0.50286444460643        0.78619135964983        1.18583284518576
H            1.35646134571636       -0.07871096049679        2.45898885615477
H            0.39080596883972       -0.96521572635955        1.28287398546395
H            1.41622963884811        0.59279786929059       -1.29102966814775
H            1.26783963517950       -1.15688929115472       -1.18022670984971
H            2.81921656369533       -0.42827932559931       -1.58752087700476
H            4.05207018103987        2.79880904962099        0.87344563009192
H            1.18927455234153        2.26528937611080       -0.03968625905948
H           -0.00543919612233        3.73772838436828       -2.76318129614858
H           -2.22482158433917        2.90510764990422       -3.42759158931016
H           -4.50352788197420        1.12666607186940       -0.74848122259177
H           -3.48784607842476        2.98851990767166        0.63028408228639
H           -1.27911950246589        3.82728997167670        1.30911653747341
H           -1.49858686223642        5.78783706042375       -1.17600713719488
H           -0.52382190760917        8.66906259821889       -1.13440417231192
H           -1.46137273279388       10.59867596752682       -1.09521656027277
H           -2.73514662856046       11.51171822369261       -1.85217137070125
H           -1.87300063116300       10.89119473871017       -4.11907040634027
H           -0.63704871946649        9.90381815505171       -3.39812992934077
H            0.34439058185443       11.94705265812825       -2.27877479707533
H           -0.88053217771539       12.93858164993273       -3.01906653822922
H           -0.02088205670521       12.32740059779966       -5.29488118839855
H            1.19437712293091       11.29336647606687       -4.56049624401366
H           -4.63277698472310       11.50256826112001       -3.01649669907829
H           -6.88940111649449       11.02675543027288       -3.88327639648088
H           -7.72965868412501        8.72376067775302       -3.96110867031793
H           -6.31781389829081        6.85295382162485       -3.17183930548748
H           -2.96108683528979        6.76768142579063       -4.15270655315469
H           -4.04160884633326        5.54489883250941       -3.48077176812754
H           -2.36160195613137        5.61101572006253       -2.97500091494748
H           -4.46554305424601        7.15827007085033       -0.12728054858498
H           -3.36647872568351        5.82053016042851       -0.43592673760811
H           -4.97347574675927        5.80919085074985       -1.14357365701212
H            1.08091069044143        8.05921147448709        0.19858172321718
H            2.04272653339911        7.42146464587587       -1.11608440374416
H            2.10292123450773        6.58003146979184        1.82592685500622
H            3.41592399339873        7.25977793078233        0.90643727350151
H            3.57709322964137        4.75987326873617        1.31693194111567
H            3.72048135672176        5.20411522906557       -0.36915796682954
H            5.93610536076467        1.69306110603761        1.07508657520798
H            6.48599713953897        0.25961597235684        1.89048674695751
H            5.71461166100334        1.01915979940080        3.99859331433995
H            4.21937766994726        1.56234613331952        3.30408210607818
H            5.47182460620042        3.58371950749973        2.33579306986253
H            6.85569763205408        3.12456254168818        3.27540990664482
H            5.64237786616446        3.52910290124753        5.37516473044558
H            4.10074723965368        3.59546897823546        4.53754378395253
H            6.19374179351441       -1.88216884129117        2.14784740491851
H            5.49780583659935       -4.24402970990101        2.10086433359998
H            3.26678568680356       -4.86481193141039        1.29480939276552
H            1.68905585363137       -3.12594133023201        0.52614444494164
