114
 energy: -21.762855026599 gnorm: 0.000955006269 xtb: 6.6.1 (8d0f1dd)
C            4.51360459142970        2.26847708539278       -3.74785438767935
C            3.96882245988479        1.69809732187786       -2.42904106964500
C            3.16145868142376        0.40383322059764       -2.62725668116496
C            3.10811693639021        2.74014542490188       -1.70035703452029
C            1.88271745383717        3.24430057694969       -2.06787505260018
C            1.21186818898316        2.99982410006112       -3.27197015527866
C           -0.06344165586289        3.42259382871625       -3.60934901771343
C           -0.99350792233727        3.98298708304821       -2.68820475260270
C           -0.80477474490320        3.91422369776035       -1.20926666829927
C           -1.18196788835945        2.75382446124688       -0.51123736380604
C           -1.48708152157371        2.80357204908477        0.82589395752031
C           -1.41113054456920        4.00453369971087        1.52261194258479
C           -2.02744237497180        4.14620864879300        2.87257461998097
O           -2.81898215179668        5.05919132234438        3.03688878062961
O           -1.69494421867066        3.23633209550978        3.82920674774568
C           -0.91889745099009        5.13148804894416        0.87325406920696
C           -0.61636644405142        5.09146153136728       -0.46487398066860
C           -2.25328217535752        4.49164590143834       -3.12882696714796
C           -3.16852675259007        4.87661148449243       -2.16646309954110
C           -4.46768873697193        5.33880796244702       -2.37519640895565
C           -5.33091453986973        5.74380805101054       -1.37794772958228
N           -6.59127599079479        6.29730363543859       -1.52003840700607
C           -7.26274683407648        6.84143027349709       -2.72853767127306
C           -6.43491674246210        6.78745906784244       -3.99976268740792
C           -6.96088540030775        7.54098755195620       -5.19641602920198
S           -5.72952779834072        7.34648179291269       -6.56061265224225
O           -5.15512057646709        8.71619819179477       -6.57982527709098
O           -4.81039066453039        6.28557100648446       -6.05824635190441
O           -6.62888183780090        6.95685747768306       -7.67430864574000
C           -7.20258465598681        6.51018745715552       -0.25866956753272
C           -8.49105333670702        7.00094231431386        0.02310571907956
C           -8.88918882167228        7.12713722080709        1.31623426070206
C           -8.02794018433614        6.78229189569953        2.39060675967612
C           -8.44023616516518        6.91708895862422        3.73177075260682
C           -7.60143254275860        6.59366789032298        4.75557898197388
C           -6.31123910198762        6.12617623899914        4.49198040179621
C           -5.87579741895185        5.97990833313657        3.21082133635200
C           -6.72100200334279        6.29400395439826        2.11945816395788
C           -6.34160688849237        6.15723700466136        0.76128698363609
C           -5.04568992012689        5.65988941036682        0.13278383706809
C           -4.79389184792111        4.20270584074971        0.56356789421140
C           -3.90174599845602        6.61573152521806        0.51712273623529
C           -2.60306835967937        4.58742625171036       -4.59021616178943
C           -1.40104168747219        4.38250572294672       -5.52383514224371
C           -0.50597046345042        3.23416121404933       -5.03638838110919
N            3.73776141544809        3.02323515436577       -0.51180000935642
C            3.12209094050818        3.76733302335592        0.59789384631221
C            1.99604244696414        2.95830728631552        1.22274610027559
C            2.43554295019878        1.57402643576290        1.64802670448643
S            0.96925841202299        0.49895074789067        1.92768392771419
O            0.14025122296486        1.34223959717748        2.82127207129262
O            0.46491114290595        0.38273578784824        0.53358076124057
O            1.62474404150231       -0.69746375115901        2.50402508046762
C            4.92511834790159        2.27142246152560       -0.34583492218345
C            5.81365678538562        2.24590950076976        0.74524452980731
C            6.88359447840492        1.41013252181678        0.71424714878207
C            7.12262800129428        0.56305172802358       -0.39783659987398
C            8.23255731998770       -0.30533473543408       -0.42840204208029
C            8.45410732582001       -1.11707888414274       -1.49974749654457
C            7.58063535302398       -1.10146547780597       -2.59038743010607
C            6.49730684018894       -0.27673937203060       -2.59736961300988
C            6.23091201245086        0.58090739754541       -1.50485345848082
C            5.12001307735815        1.45887195238518       -1.44662320366037
H            5.19140707289030        1.57025354786960       -4.23359095025541
H            5.06423806587205        3.18924956423380       -3.56004789898271
H            3.71737258348320        2.49569979841505       -4.45207359663133
H            2.31352530437387        0.55760357496454       -3.29057955231589
H            2.77243389722852        0.05176390710959       -1.67217209878922
H            3.77240725407128       -0.38971780234179       -3.05091886028135
H            1.41145798935708        3.90783361280824       -1.37110215186685
H            1.74917898565170        2.46734243939864       -4.03383041928202
H           -1.29623299714312        1.83039410936559       -1.05353701777314
H           -1.82470000349213        1.91751033779949        1.33645291356441
H           -1.04630023114100        2.57146089052128        3.49430506283075
H           -0.85395924738310        6.05543939073849        1.42179948780574
H           -0.33114602222161        5.99232154884332       -0.98106616955393
H           -2.84723833672074        4.80565310201453       -1.14876378790798
H           -4.79704715649095        5.33645220209147       -3.39140567037677
H           -7.52533463380213        7.88079844645419       -2.51177519750335
H           -8.20768085280117        6.30885547340646       -2.86625441388508
H           -6.31384608506863        5.73949523677826       -4.30119968187184
H           -5.43099988545046        7.17413887368705       -3.78003026434582
H           -7.08172030311934        8.60308255848747       -4.98337034453660
H           -7.92593711014982        7.15813749314255       -5.52807475923259
H           -9.14987678591678        7.26199398928211       -0.78559314238332
H           -9.87388906156967        7.49675281820574        1.54288135181275
H           -9.43169987256442        7.28131204069898        3.93754535640020
H           -7.93033010341911        6.70163157247996        5.77594555935546
H           -5.65475001847429        5.88199102810077        5.31121059611631
H           -4.87043947183921        5.63579375781864        3.04021810829224
H           -5.67175095147091        3.59291006814442        0.35503364873251
H           -4.58471802674755        4.13262120263659        1.62868661251164
H           -3.95486686060508        3.75413095096606        0.04016908570812
H           -4.19870043319936        7.64782841572653        0.33579993791876
H           -3.00227562846396        6.43357305609090       -0.06309754808384
H           -3.63991208609887        6.52189605578971        1.56894775869977
H           -3.06778491656985        5.56152815871133       -4.79146348352926
H           -3.37626684531283        3.84430940494610       -4.81617491947101
H           -0.81248451007833        5.30672838619876       -5.56783375301626
H           -1.74031042852296        4.20086069048318       -6.55291494835481
H            0.37102869854211        3.12894543598320       -5.68687432672392
H           -1.04817332634376        2.28451325193009       -5.11214964618302
H            2.76832241591377        4.73199224388178        0.22222289081790
H            3.88870371336219        3.99514458497270        1.34112278900489
H            1.19074567707977        2.84326343453352        0.48856629051544
H            1.54171840371685        3.49073058393573        2.06865590347404
H            3.04833379810187        1.59869493638260        2.54902056013761
H            3.02844725217813        1.09917018219000        0.86699143912747
H            5.64115019347239        2.88153509761016        1.59448821603166
H            7.56788673122286        1.37893679321647        1.54398412968295
H            8.90535109106170       -0.32007629981530        0.41140465220325
H            9.30611920213292       -1.77666681936188       -1.50873007112173
H            7.76872096136175       -1.74955303483049       -3.43044967578360
H            5.83768683889341       -0.27806949361642       -3.44499399702938
