100
 energy: -18.002381745249 gnorm: 0.000978226276 xtb: 6.6.1 (8d0f1dd)
C            1.00110648183612       -0.48335857277100       -0.36545394531682
C            2.46288702021598       -0.10775948463972       -0.08489722420466
C            3.27938588752986        0.02397559920716       -1.37920020459512
C            2.55943295178957        1.16400350865777        0.77302527960616
C            2.15343264610397        2.44252351563363        0.46222118043296
C            1.56183752829548        2.85886029186625       -0.72866051198753
C            1.19161917439477        4.16679679344875       -0.95106766869157
C            0.63216937749163        4.62343848652162       -2.13343597406691
C            0.26864815738415        5.94625222660790       -2.32622074070691
C           -0.25359844220808        6.44133684370380       -3.50102245994952
C           -0.59969871133326        7.78409739551440       -3.64711999751115
C           -1.09314173565918        8.39849276614330       -4.77769968356369
N           -1.39269174962243        9.74147054648123       -4.92530434528739
C           -1.22854931799949       10.89839190295000       -4.00745994522376
C           -0.35972553147967       10.70973405631456       -2.77220383561867
C           -0.02077997119947       12.01769511176628       -2.05663514918266
C            0.81830205971066       11.78328254486352       -0.80206573030919
C            1.14428238779473       13.05028379086420       -0.02247941394205
C            1.90701543803993       12.73078577608477        1.23563194612449
O            1.72741001931674       11.64856080453521        1.75324484637178
O            2.73806277060729       13.68817347780783        1.72320296886418
C           -1.92571907522429       10.01138121439756       -6.21314984112100
C           -2.38015885813643       11.20459012807311       -6.76546298633163
C           -2.84853031905925       11.20252355228880       -8.06220533907608
C           -2.86778410092283       10.03531596094560       -8.79978050195304
S           -3.48369498164704       10.05792028915475      -10.50254253827540
O           -3.35351467127919        8.63183700986643      -10.90306921079213
O           -4.86975993363906       10.55963187676989      -10.31056416628108
O           -2.53941270028317       11.00615614630261      -11.14880112751935
C           -2.42524249623963        8.84741252270007       -8.25999967469394
C           -1.95598308771984        8.83839704795442       -6.96393971025582
C           -1.41667314875521        7.70150121578208       -6.11124816085547
C           -0.15208023292022        7.13015960942377       -6.77085230998150
C           -2.50967212652312        6.63480320218502       -5.94050150320991
N            3.16108528403793        0.81227662943005        1.95836732193308
C            3.54521343931491        1.75031691543346        3.02418410737441
C            4.85221983003445        2.45760931941675        2.70246356759023
C            5.25013666172786        3.50296392944235        3.74319094231755
C            6.52937141073576        4.24947143760090        3.36979918879474
C            6.93445456736692        5.31677503280889        4.37910192040541
C            8.20542707739000        6.00874441397386        3.96450570166151
O            8.98760205698470        5.39893867839993        3.26653258714190
O            8.40210426664367        7.27402588756140        4.41755898206109
C            3.50764290604169       -0.56010393504023        2.00286128343480
C            4.14785702832173       -1.30332994222744        2.98737155132847
C            4.36954664113762       -2.64496891335368        2.76098516459859
C            3.96546404403705       -3.23605700912115        1.57946539094526
S            4.26203620886348       -4.99842814872447        1.28921128993689
O            2.87386061484774       -5.50859569135416        1.13391595461331
O            5.06592352208772       -4.95836336992512        0.03878857125311
O            4.98047168321471       -5.40727164964569        2.52339329818224
C            3.33281610357022       -2.50636748163313        0.59697613025334
C            3.10326605800447       -1.16420274782323        0.81157993381262
H            0.50033141929228        0.27031400996114       -0.96901276434869
H            0.45019335552597       -0.58648575846216        0.56840199894547
H            0.94092898996355       -1.43283267480334       -0.89545815552001
H            2.87534269143310        0.78868073608999       -2.03817329920464
H            3.28908592851923       -0.91742436271140       -1.92665712311589
H            4.31119440319466        0.28784903273804       -1.15121888019005
H            2.31297648901628        3.20080075755642        1.20689857406550
H            1.38625388521076        2.14457563389024       -1.51014796242766
H            1.35411642926166        4.88047658486048       -0.16205805567673
H            0.48242157278859        3.92490074426044       -2.93748089132672
H            0.41371488677342        6.63079226335264       -1.50841688849266
H           -0.37893334174858        5.76317235615735       -4.32258895282922
H           -0.46667897915808        8.38146007247890       -2.77002246086299
H           -2.22794225767853       11.23421574121137       -3.71597595949281
H           -0.80416956799742       11.71025485403092       -4.60568338480560
H            0.57058575219041       10.20414018715366       -3.05412279537561
H           -0.87134108840571       10.05493514140947       -2.05927352032789
H           -0.94448023206743       12.54409566439453       -1.79046077640673
H            0.50995826004160       12.69177130659627       -2.73843609795285
H            1.75113522921943       11.27192233746456       -1.06672721261423
H            0.29837775770679       11.08607424752583       -0.13386026179124
H            0.22294341031598       13.57551621681860        0.24583956045945
H            1.72185480450986       13.73848600866069       -0.64632421228689
H            2.72597206402306       14.49876434262544        1.16964616606348
H           -2.37205525817673       12.10966775047116       -6.18577810557977
H           -3.20699022563240       12.11205758678856       -8.51742943179397
H           -2.45051846489616        7.94725675881780       -8.84954518647332
H            0.59484440881155        7.91261928791319       -6.89748959942782
H           -0.38023771762647        6.72584066983662       -7.75605678920775
H            0.29312277527116        6.33415594437693       -6.17927098820647
H           -3.39607192699930        7.07162661042739       -5.48261567946633
H           -2.18128507942935        5.80974513922425       -5.31335885562440
H           -2.80166398015663        6.22406679179450       -6.90594207743917
H            3.62104619359683        1.20501542605347        3.96791426880344
H            2.73586575340836        2.47040473017782        3.16738833287759
H            4.77276800473124        2.93136601095753        1.71795294678015
H            5.65073643526811        1.71540145431469        2.59313100992666
H            5.37145485815251        3.02471257354135        4.72198857994257
H            4.43227131912946        4.22110025471167        3.87372790708331
H            6.41577341298099        4.71385090486546        2.38296408514539
H            7.35780886354424        3.54027157378560        3.25060997309923
H            7.07998855108127        4.86706925395707        5.36575988458717
H            6.13171542854493        6.05160655524379        4.48971161112274
H            7.66034250725759        7.58076170446138        4.98255861489464
H            4.46541211763554       -0.83770841859279        3.90243488749247
H            4.86402346636340       -3.25433052458812        3.50085435039786
H            3.02899658168781       -2.98172399315377       -0.31968159209758
