97
 energy: -17.500495379902 gnorm: 0.000783424676 xtb: 6.6.1 (8d0f1dd)
C            1.19974473132847       -0.71097949713933       -0.73822487091655
C            2.62061489013686       -0.29917223631645       -0.32553339238282
C            3.50280310357311        0.01486577108071       -1.54328149623083
C            2.59704447480189        0.87241582924721        0.66889393030308
C            2.16588140316182        2.16479807320699        0.46700918070390
C            1.61473004276601        2.68120507297611       -0.70376359098122
C            1.23751976018172        4.00015948981962       -0.82853073275669
C            0.67938043272260        4.53319250605425       -1.97881148707087
C            0.31497692824318        5.86439594524156       -2.09858646057435
C           -0.25145173837716        6.39948898858676       -3.23437056122824
C           -0.60968420423447        7.74193298983122       -3.33908887456232
C           -1.18362669142535        8.34969592515267       -4.43348191281893
N           -1.52942700441438        9.67945455109805       -4.48931935149025
C           -1.29233292452535       10.67228395483001       -3.43047400152857
C            0.10105105043305       11.27265290141227       -3.52785731576720
C            0.40036010942222       12.29307178331461       -2.43084200269683
C            1.80240587481718       12.88765392791713       -2.54393648894954
C            2.13575777624552       13.88813370105472       -1.44410600318205
C            3.54973906950579       14.38525962445547       -1.57503768397211
O            4.38065131447900       13.61402416671227       -2.00470838385403
O            3.80999195111942       15.66015049726958       -1.18804183363476
C           -2.06076508312602       10.04789630427089       -5.74885686035742
C           -2.50215486597923       11.27782402750578       -6.22197202408648
C           -2.97822578192649       11.35666146132723       -7.51324267138281
C           -3.01369517998833       10.23527843859849       -8.31872174244033
S           -3.63746668443882       10.36541254808024      -10.01355217388218
O           -3.94507900964508        8.94747733474274      -10.33454430251256
O           -4.79955940883554       11.27402763999120       -9.83991778612504
O           -2.46076442453468       10.94476860809690      -10.71181847384051
C           -2.57777094971547        9.01223978858704       -7.85746697023589
C           -2.09943570341434        8.91957566800058       -6.56826307182323
C           -1.54503135019137        7.72765673013751       -5.79272802762733
C           -0.30108636376133        7.18505766261852       -6.51215174593408
C           -2.63574276262771        6.65696554530976       -5.64644830218675
N            3.12497014228207        0.41244728221876        1.85189302257266
C            3.30086262627976        1.22592259468694        3.06324615088577
C            4.55027577522273        2.09387879928604        2.98848779565988
C            4.56146021330080        3.20698976455609        4.03478191011867
C            5.75978715331678        4.12764969805476        3.93396299085862
S            5.51843489436981        5.55967300233110        5.07352311751592
O            4.26118471064965        6.10342071932001        4.49808566753647
O            5.39833348615724        4.83820190949887        6.36483512940393
O            6.76268888869130        6.31939279830746        4.82179310936921
C            3.54201677518832       -0.93808356987589        1.77316771659710
C            4.14561425939652       -1.75936344771715        2.71779651241872
C            4.45365241250504       -3.05518620347833        2.36243003867247
C            4.16968575981404       -3.52429784212423        1.09450097382286
S            4.57744311823542       -5.22733966873842        0.63517439432519
O            3.23481274334960       -5.76397588025549        0.29217235749913
O            5.48459615643564       -5.00505623041046       -0.52065593561330
O            5.20179436104210       -5.74830701385910        1.87731979314421
C            3.57445597766059       -2.71591090732819        0.15142832386087
C            3.26068494972888       -1.41805477031110        0.49318105767898
H            0.69638064795591        0.07641525535119       -1.29438978999206
H            0.59981708019850       -0.93700729486944        0.14221584603657
H            1.22236134702660       -1.60178673471097       -1.36428665811947
H            3.09803597762130        0.83163457742832       -2.13614227409882
H            3.59159821265178       -0.85621152360216       -2.19080925993946
H            4.50518062086642        0.29606750983403       -1.22351021287045
H            2.26702186198083        2.84965040864110        1.28898205423187
H            1.47136771233895        2.03431269191801       -1.54810835891409
H            1.38602771728444        4.65441297207890        0.01291939045524
H            0.52134023152668        3.88162840105765       -2.82000582519938
H            0.48336823890056        6.51415179312672       -1.25753193173238
H           -0.42468395071567        5.74289821659480       -4.06537976113211
H           -0.41573473674099        8.35819066088827       -2.48049381123595
H           -1.44941425669601       10.20051567265011       -2.45754594515458
H           -2.05515684011083       11.45154087852829       -3.50310744476423
H            0.22690214033283       11.73720645912263       -4.51228285385256
H            0.84484271539704       10.46867031246101       -3.49860333421604
H            0.27827502805508       11.82342040991663       -1.44823299179285
H           -0.34414322950719       13.09664089815516       -2.46011402115817
H            1.92783456990622       13.36856565568956       -3.52100066344735
H            2.55080499213560       12.08595199457361       -2.52872371493191
H            2.01613767744220       13.42156683990561       -0.46188395906597
H            1.43683712192227       14.72872907355725       -1.47436838506530
H            3.00967047842993       16.11363886626904       -0.84658048677399
H           -2.47076171072101       12.14717523317541       -5.59087439180500
H           -3.33571201207362       12.29358366992862       -7.91040751429751
H           -2.61975235323256        8.14904736463431       -8.49915878208247
H            0.45022349881218        7.96711332128298       -6.61209598949775
H           -0.55504360702839        6.83676472679091       -7.51222242597413
H            0.14889817940748        6.35410026916256       -5.97438814352725
H           -3.51073366263352        7.07325621466626       -5.14915856373915
H           -2.29125428536271        5.80619521128333       -5.06318891480201
H           -2.94973165282934        6.28935192725689       -6.62232584838588
H            3.32780512019104        0.57310270656264        3.93948160180593
H            2.40728497605734        1.84323733318329        3.18885237773164
H            4.61954129809364        2.53720549070182        1.98888563974676
H            5.44644721541283        1.47071382807596        3.08390627720725
H            4.50826374026581        2.77982076851485        5.04487797316432
H            3.64698717215521        3.80739420877243        3.93466094218930
H            5.87634325044340        4.51876029153449        2.92307269145124
H            6.68668588712833        3.61652480668999        4.19552134720477
H            4.36939928550748       -1.38701914727779        3.70072533651849
H            4.92231030165036       -3.72368785435059        3.06766149435345
H            3.36237081507964       -3.09788112240920       -0.83241735491845
