100
 energy: -18.699657300425 gnorm: 0.000530677514 xtb: 6.6.1 (8d0f1dd)
C            3.38962787895323       -0.20235725512288        4.61052618629682
C            3.68836948644609       -0.14267574261827        3.10467607901981
C            2.93569145028994        1.00292099315204        2.40404096005344
C            3.36233313171277       -1.49346203633408        2.44864470103282
C            2.15646946878989       -2.16061426364274        2.39969741377756
C            0.92738259495537       -1.69406682353679        2.86104570447363
C           -0.21071915066343       -2.47169177992175        2.85862273024806
C           -1.45843169323815       -2.01470925591650        3.25333354955835
C           -2.56977184036509       -2.83832932549264        3.33935950245154
C           -3.83284232335561       -2.39536072305249        3.66965246183443
C           -4.90838794624258       -3.26496213369692        3.83671343994492
C           -6.21525558031424       -2.92161236747515        4.11194973224158
N           -7.21827612012757       -3.83102022566246        4.33195331127491
C           -7.01825430391904       -5.28122677394066        4.47593746668606
C           -6.49785287640116       -5.63080066795543        5.86108544966763
C           -6.12899012611341       -7.10445648538553        6.01474340848104
C           -5.57633121141062       -7.44094885511207        7.38339966018671
S           -5.06562298816288       -9.21138988470747        7.43753199917211
O           -6.36430839791502       -9.87278669838629        7.14563760973788
O           -4.04960721386308       -9.21984797076579        6.35178516936654
O           -4.55626608282855       -9.30552146696304        8.82675301445830
C           -8.46256530129786       -3.20926180507725        4.58561656166567
C           -9.70470686151495       -3.80190218100014        4.87571189848625
C          -10.78688777218677       -3.00800174913411        5.08508985783715
C          -10.68604792049232       -1.59472256380159        5.01832342851652
C          -11.80972486697168       -0.77231441051331        5.23649323859000
C          -11.70383028707401        0.58470038259878        5.17468419140354
C          -10.47373191390249        1.18500341341981        4.89336930371547
C           -9.36533700494788        0.42394161292028        4.67674972235826
C           -9.43259449516730       -0.98732706711253        4.73042274830225
C           -8.31840449065339       -1.83627813352517        4.51458611336324
C           -6.84481471051127       -1.52460774191644        4.22200435849632
C           -6.23240247556474       -0.74820764013196        5.39904989308577
C           -6.70399487319804       -0.77494335847823        2.88818288235358
N            4.52831628444827       -1.97473137733986        1.90475390511658
C            4.59255882427701       -3.05395240395134        0.90143911935273
C            3.93798114702707       -2.61599974082564       -0.40429692872514
C            4.42465977728792       -1.23178448797427       -0.83053846147980
C            3.60195577561869       -0.57798865285188       -1.92089881912080
S            4.01304013438169        1.21944121663153       -1.95547429433098
O            3.59594989783949        1.58890248884960       -0.57588349106146
O            5.47861362976165        1.17192520623336       -2.19870163040636
O            3.14872539707861        1.68574950062521       -3.06539678493562
C            5.62038942427905       -1.10307469246507        2.13977131115027
C            6.95723847168093       -1.22616161640360        1.71779793058552
C            7.84473744333635       -0.24344009389874        2.01974783497822
C            7.45035960948194        0.90341473055822        2.75421184772723
C            8.37203819898174        1.92387842332557        3.06346115114261
C            7.98415270708871        3.02505452827936        3.76575244575161
C            6.66013597208062        3.16048826959537        4.19117580480436
C            5.74064604157007        2.19584131993464        3.91080583553841
C            6.10225425266926        1.03701063937529        3.18600142479512
C            5.19441334479968       -0.00061283806338        2.85743080531841
H            3.67087960152826        0.72081863817959        5.11199487012419
H            3.94625636396573       -1.01619314724419        5.07332912541107
H            2.33192226072270       -0.37268411557471        4.79988455138563
H            1.85763087713422        0.88664416573871        2.47641421505429
H            3.19424555951080        1.04262291212686        1.34729343463501
H            3.19041195281127        1.96834138013846        2.83477836639432
H            2.16500703133287       -3.14794808576261        1.97512541478860
H            0.85092606393344       -0.69334499529473        3.24190478574983
H           -0.12534384832163       -3.49564363913115        2.53830464560515
H           -1.56721844085816       -0.97609114798476        3.51212054393053
H           -2.43529150785883       -3.88857273970148        3.14611932331401
H           -3.97800184569589       -1.34034942903089        3.80478063565127
H           -4.68863571263469       -4.31296009819190        3.74681816007346
H           -6.32534154220099       -5.61997628256039        3.70165192778700
H           -7.95823033657740       -5.79892623876013        4.27037337063339
H           -7.24249584862309       -5.34956798380374        6.61444027970768
H           -5.62255791209414       -5.01010629832300        6.08409416729496
H           -5.39096302238981       -7.38185913796845        5.25039936632121
H           -7.00305356013852       -7.73530444431395        5.80651560991755
H           -6.31508202834986       -7.26877038109455        8.16630537575880
H           -4.70478501035369       -6.83053055818218        7.62017392189192
H           -9.78874946683439       -4.87179464659377        4.93273269700746
H          -11.74357707752578       -3.44796369865402        5.30759157868952
H          -12.75772703005139       -1.23294688850497        5.45414284165850
H          -12.57153944410956        1.20083736208112        5.34358396704353
H          -10.40558344341582        2.25946185380847        4.84795821435356
H           -8.42838824066588        0.90305943728224        4.46225117255169
H           -6.33211335227539       -1.32058468553813        6.32037936970261
H           -6.73062845467613        0.20739083805729        5.54692958663738
H           -5.17532325200073       -0.54632922574427        5.24520919914414
H           -7.16201671628654       -1.34837212347934        2.08333341945402
H           -5.65929739755761       -0.61522882981028        2.62983250703974
H           -7.18873054829024        0.19804122565965        2.92157086787857
H            4.12488022617402       -3.95333870107356        1.31206455471706
H            5.64050705664151       -3.31107624087898        0.73431501238024
H            2.85116251323606       -2.57745565457642       -0.26842427246065
H            4.10821657412613       -3.34738934258868       -1.20317650803563
H            5.48308286796775       -1.26544640729753       -1.12034540202980
H            4.40202420302198       -0.57286935404739        0.04699899044506
H            2.53422276473884       -0.66761127030372       -1.72049532073431
H            3.79076056307689       -1.01923293008066       -2.89957989420134
H            7.26864628204912       -2.08938563002337        1.15893653730955
H            8.86827163619370       -0.32308257621896        1.69661749512579
H            9.39108698363969        1.82303731423709        2.73229712922061
H            8.69915544794034        3.79853262788564        3.99304897266350
H            6.36736571909038        4.03851399648490        4.74305129996502
H            4.72732297424694        2.31884574126702        4.24435113876484
