76
 energy: -14.301984039643 gnorm: 0.000568604186 xtb: 6.6.1 (8d0f1dd)
C            1.07661193426318       -0.49549896763307       -0.27701761020726
C            2.53589997474812       -0.08377453776602       -0.03965158627563
C            3.31135322657116        0.10913177270486       -1.35183091916002
C            2.64109296105544        1.17454941641191        0.83058293254153
C            2.25131835157438        2.46120956494586        0.52720908802964
C            1.55869995706364        2.88577211049087       -0.60258788487031
C            1.29206171439783        4.21584447961116       -0.83996076485487
C            0.60311899126207        4.67790432731603       -1.94917980001213
C            0.33431081567954        6.01864937642163       -2.16965753978783
C           -0.34710450637466        6.49350663549068       -3.26820572473325
C           -0.60725580343557        7.84883834441437       -3.44669913047640
C           -1.19856294729545        8.44791591744929       -4.53796640131699
N           -1.40711126989764        9.80397904724898       -4.65014366298277
C           -1.04517860868100       10.80159535213918       -3.63814988980942
S            0.77443040927998       10.82282752447231       -3.31875473566798
O            0.75985863546981       10.09977429223284       -2.02616614002435
O            1.31422742587375       10.04420928822490       -4.46124557205835
O            1.01234563056252       12.28004777837834       -3.30439240358747
C           -1.93294461061608       10.16565726477192       -5.91576474054391
C           -2.28550416265563       11.40521389543686       -6.43755600464059
C           -2.79953026431870       11.46464285601707       -7.71505699393498
C           -2.95797182508676       10.31440393044734       -8.46196233124438
S           -3.64883273180911       10.40725259610868      -10.13354870943218
O           -3.79751420177696        8.97058428711270      -10.47080354944371
O           -4.90208555183659       11.15942864141185       -9.88398042788933
O           -2.58476487337967       11.14523278429817      -10.85530228784117
C           -2.59934961896702        9.08398447168891       -7.95812703930851
C           -2.08557945356418        9.01040236222540       -6.68196966340970
C           -1.59426010503175        7.81226689397624       -5.87633336652422
C           -0.36081215185254        7.20766621856659       -6.56403531105965
C           -2.73085156512581        6.79375650705884       -5.71373942324806
N            3.35013147227952        0.83382116087151        1.96027466742320
C            3.78956474367695        1.77378223416744        2.99608795348672
S            4.93999434380222        3.04929571625848        2.31536957752196
O            5.29873279600319        2.48767922425673        0.98923312237183
O            3.98003142942401        4.17657665314586        2.27389626616214
O            5.97778754456893        3.05032597621896        3.36533508247235
C            3.71985892028703       -0.53445531440395        1.97273390983902
C            4.42836066693711       -1.27989852852748        2.90826940174339
C            4.62831844312186       -2.62212969874054        2.66836250507361
C            4.13663618247361       -3.21258527634455        1.52116106291231
S            4.38645111385550       -4.97993861761810        1.21792658204912
O            2.98080644694087       -5.45066743926766        1.15552175092181
O            5.09983071628165       -4.95254208136414       -0.08201459213382
O            5.17008666897558       -5.38631977140717        2.40805811589253
C            3.44577630142962       -2.48005239190260        0.58240356484117
C            3.23859525675052       -1.13706515730246        0.81047365277321
H            0.53455990508977        0.24933045196113       -0.85431147505133
H            0.56013083412500       -0.62581681878050        0.67290195302060
H            1.02450148904319       -1.43951110463587       -0.81727581728767
H            2.85116759323182        0.86545789071325       -1.98346934064501
H            3.35890432848584       -0.82034436330582       -1.91709452432347
H            4.33197641543624        0.42841126946872       -1.13892332964286
H            2.57817910590785        3.23579506019255        1.19844760948690
H            1.22420023069518        2.16348872021494       -1.32239118809738
H            1.64843167561644        4.93875136482010       -0.12546079878801
H            0.25819540200154        3.96106407011678       -2.67259477705957
H            0.68640368280228        6.73351387652034       -1.44499274549655
H           -0.67451221130884        5.78820896982688       -4.00782544091164
H           -0.24071927793049        8.50394079010261       -2.67613970165863
H           -1.56781848767739       10.57942172986252       -2.71136124859905
H           -1.34790861672814       11.79379545949274       -3.95734575408789
H           -2.15396514944271       12.30107112485908       -5.85789535112157
H           -3.08796825267769       12.41074879755197       -8.14696663559039
H           -2.72756652818719        8.20061274533244       -8.56023053305722
H            0.42721810059747        7.95696629775945       -6.64396469075706
H           -0.60360381269914        6.86315256884367       -7.56804090420586
H            0.03812191810417        6.36468246182583       -6.00446326702491
H           -3.58540510296882        7.25458670666850       -5.22038599429999
H           -2.42411734750422        5.93528714159893       -5.12154255368111
H           -3.06296730433492        6.42766243109967       -6.68403781418497
H            4.29679409083463        1.24656004839816        3.79781303133189
H            2.92142613763082        2.26832228259711        3.42416165757430
H            4.81782417336475       -0.81721813324605        3.79712620210980
H            5.17210907322174       -3.23382079506287        3.37228755308440
H            3.07763911237852       -2.95581216452063       -0.31050915064416
