70
 energy: -13.416715234502 gnorm: 0.000976480710 xtb: 6.6.1 (8d0f1dd)
C            1.08949574932871       -0.39273871536871       -0.42572981441340
C            2.59382863527442       -0.14361427202705       -0.25933335142612
C            3.33586524147469       -0.13127486238204       -1.60222262007673
C            2.85970095766342        1.14952032832863        0.53490891681952
C            2.50871592791406        2.44669645853622        0.21870542715763
C            1.87324135912824        2.89207575796543       -0.93435001977787
C            1.55578037735086        4.21670299611879       -1.13564365159064
C            0.92754403777377        4.69064755063653       -2.27523381020334
C            0.60227038983079        6.02329361781100       -2.46586884814401
C           -0.02079721491319        6.50158757458427       -3.59671605461768
C           -0.34479981724977        7.84356192566225       -3.75754586115337
C           -0.97420705459851        8.42907414201560       -4.83758823249937
N           -1.22876731117759        9.76402714711954       -4.94597035967177
S           -0.70699935777957       10.93483004989005       -3.79551466766747
O            0.74536607603469       10.98696395270660       -4.05509942682890
O           -1.45358624092316       12.15412824499884       -4.13568719623047
O           -1.03265123371555       10.29738106026184       -2.50689305817721
C           -1.90820057418370       10.10381499528724       -6.12773551451080
C           -2.37169215942540       11.32965645210587       -6.59597923185151
C           -3.03069696402240       11.37588462525153       -7.80378894730066
C           -3.22774133626886       10.22172336933676       -8.53655093955319
S           -4.09050084129708       10.28215624675596      -10.12805165674380
O           -4.72516915973634        8.94259411865612      -10.16071547601449
O           -4.98343271998031       11.44892965911835       -9.94031620922895
O           -2.95527861946007       10.46842163560373      -11.06338849252849
C           -2.77905611628471        9.00116206143016       -8.08212775802263
C           -2.11982551982080        8.94101054258655       -6.87428603623712
C           -1.52151232744557        7.75966490905518       -6.11268084656781
C           -0.38851830439684        7.13826027332414       -6.93963164809106
C           -2.62479498472874        6.74723703668152       -5.78005598134276
N            3.52544775646142        0.79245584200126        1.66914869458219
S            4.10942910931907        1.92815736279756        2.82354257372812
O            4.52460761100183        1.11529067696103        3.97527476840308
O            5.19993465467147        2.58643346611923        2.07670435042292
O            2.94933268750750        2.81608351704665        3.02189135919071
C            3.73922736343159       -0.59201241917147        1.77360760801435
C            4.35804547776188       -1.34896761936568        2.76378547694398
C            4.43060258344156       -2.71469627001818        2.60864351408703
C            3.89568999814874       -3.32055924811829        1.48847366596718
S            3.98943746453255       -5.11680387414256        1.27954228907567
O            2.55170974722733       -5.46217263662056        1.16134172709605
O            4.76328939988762       -5.21413168372605        0.01767773263120
O            4.68066957412074       -5.53213702308292        2.52260771881005
C            3.27767280842843       -2.58380200494845        0.50237322004485
C            3.19748504205670       -1.21621859049176        0.64584287583579
H            0.61927312672624        0.37707803378173       -1.03316862044158
H            0.59837824995760       -0.40007859410766        0.54661547272069
H            0.90566864614723       -1.35511446254723       -0.90089725613089
H            2.95768626272804        0.64254473855520       -2.26583705230334
H            3.23348767664631       -1.08891436407727       -2.11038769439131
H            4.39816732324933        0.05168389582429       -1.44414656785616
H            2.73793632116908        3.18940656984134        0.96423788218920
H            1.61718969500060        2.18618793730883       -1.70149897513189
H            1.80868695540208        4.92321420554925       -0.36398423935024
H            0.67815436774681        3.98793626352513       -3.05070806126851
H            0.84760820762673        6.72299811342016       -1.68564889212372
H           -0.26040694661393        5.80448740978584       -4.37705586949742
H           -0.10360556518988        8.50228410891132       -2.94044008614303
H           -2.22400543550168       12.21227426175712       -5.99608054248286
H           -3.41400469436934       12.31001181751252       -8.18700723114359
H           -2.95569879956759        8.11259497124918       -8.66431936268368
H            0.37571586510356        7.88476681416097       -7.15286073450679
H           -0.76326187292694        6.76198735977624       -7.89027756566598
H            0.08705292822442        6.31244350771437       -6.41611877476409
H           -3.41190662746219        7.22416768390647       -5.19733597218859
H           -2.24143061844842        5.90934838760429       -5.20260786082002
H           -3.07486447533588        6.35115349458147       -6.68905422571070
H            4.75475681768244       -0.85365384769695        3.63434881366906
H            4.90301282955401       -3.33198394739072        3.35846429220935
H            2.86682759009032       -3.07660273623350       -0.36243708451386
