68
 energy: -15.266013932152 gnorm: 0.000967111302 xtb: 6.6.1 (8d0f1dd)
C            1.07653903368450        0.17977784088612        0.04763713173949
C           -0.13330623280154        0.05902077611392        0.17776220439977
C           -1.53087275163738       -0.06181596344818        0.32375242441489
C           -2.13295680293617       -1.31230316584915        0.41957178514852
C           -3.49945513073769       -1.42683830395262        0.56411189716987
C           -4.28700930516429       -0.29479882641192        0.61504054742327
C           -3.70548874550403        0.95314055515025        0.52097717421334
C           -2.33910301938117        1.06950240693757        0.37651433968857
C            2.46656711793810        0.33800781718364       -0.09431201446713
C            2.98773299916845        1.64001045160898       -0.01621908517731
C            3.48377165832664        2.75635058612281        0.03322746152959
C            4.14050716052938        4.00321116551517        0.06982988296391
C            3.44061377608905        5.17948369613562        0.31652860558383
C            4.09462580402651        6.39302559456235        0.34862065081323
C            5.45694230686514        6.45087139386223        0.13529947663789
C            6.16545461453686        5.29252695193164       -0.11052225055293
C            5.51325835028853        4.07863803733190       -0.14327849951402
C            3.22986145882116       -0.75151361145071       -0.34470404392504
C            4.67770886250270       -0.79353940263058       -0.51505175325131
C            5.53590797641717        0.14427747273003        0.06388518864126
C            6.89528539292555        0.07138326825098       -0.11366954338748
C            7.47490335768018       -0.94838275729885       -0.87424301533584
C            8.92166373768361       -0.96830583226486       -1.03086756930991
C            9.69826577840129       -1.86619127064432       -1.68155968271874
C            9.21990799839460       -3.00020928799349       -2.35771723288418
C            8.78497989667976       -3.97946147640508       -2.94674935666008
C            8.21771482621270       -5.08231582263009       -3.61713642090388
C            8.71646687937737       -6.36748886649472       -3.43294051956551
C            8.15104675010306       -7.44194957069160       -4.08647091652058
C            7.07874501044133       -7.25018825855093       -4.93361971430456
C            6.57168864815915       -5.98150669640136       -5.12614411286748
C            7.13553419183014       -4.90595611171470       -4.47323959968959
C           11.08913034662783       -1.65605623741454       -1.68710896881230
C           12.29796577178615       -1.47043214715149       -1.69222930540874
C           13.69234906264095       -1.25862363088534       -1.69956763618532
C           14.21781908639351        0.02522680208929       -1.59392923241557
C           15.58120245370246        0.23108031609647       -1.60098227077720
C           16.44206531851250       -0.84160155519307       -1.71397561079744
C           15.93696296443447       -2.12144985322085       -1.81985414998627
C           14.57380688776558       -2.32910479227052       -1.81285823087211
C            6.61607472070484       -1.89462911326859       -1.43880159382666
C            5.25644348721104       -1.82300387169288       -1.26131619148091
H           -1.51450084330206       -2.19280173476716        0.37973612903615
H           -3.95290299312513       -2.40185193593529        0.63745569306235
H           -5.35502535502813       -0.38512378679516        0.72837059548764
H           -4.31965515769643        1.83795147309910        0.56078999723920
H           -1.88058345772166        2.04099135633743        0.30311844133839
H            2.37793782430397        5.12889433293499        0.48201943985645
H            3.54093886768121        7.29751232877070        0.54029802927770
H            5.96707652042288        7.39992023147238        0.16026465951814
H            7.22931186825749        5.33643361958121       -0.27742921246887
H            6.06106451128374        3.17191707959051       -0.33539741410305
H            2.71424484096535       -1.69087413925122       -0.45264170595605
H            5.12311851532043        0.92442275836716        0.67686761825487
H            7.53456386332308        0.80750484685994        0.34339150252266
H            9.44176862975920       -0.15167017350297       -0.55917391405471
H            9.55221812702284       -6.51208067229560       -2.76994856496072
H            8.54662486328248       -8.43281044359556       -3.93464978798591
H            6.63733784638121       -8.09059431870481       -5.44403219826807
H            5.73445231240198       -5.83059104199647       -5.78768922253685
H            6.74318167900893       -3.91411379560425       -4.62015875939535
H           13.54223650102533        0.85912609905539       -1.50620934435125
H           15.97480944399203        1.23106365652199       -1.51858809105848
H           17.50767663111810       -0.67995940638235       -1.71943221353546
H           16.60851799426564       -2.95985718047985       -1.90821939426191
H           14.17487199774139       -3.32577876367643       -1.89531956919472
H            7.02275648461142       -2.69364335311147       -2.02730517895037
H            4.61583678858005       -2.56290574214073       -1.71026778230909
