55
 energy: -10.580618666312 gnorm: 0.000875557201 xtb: 6.6.1 (8d0f1dd)
C            1.19789757547041       -0.09192686593193       -0.88583817629295
C            2.58717224982486        0.29441733656291       -0.36079413255214
C            3.57529286782581        0.57826859303677       -1.50206819936985
C            2.50579190467082        1.48280009379995        0.60992940053822
C            2.10129681854058        2.78327824752432        0.34935988842853
C            1.66818670421583        3.29166121901215       -0.85223859306297
C            1.26702377339629        4.62664946936118       -1.05942792774837
C            0.88700116604949        5.03597791158969       -2.31857538298610
C            0.49108585711041        6.35037574272382       -2.56892750479071
C            0.10625340390880        6.79258202265179       -3.85047157257624
C           -0.26980800029908        8.08352905190489       -4.06073864569895
C           -0.28350930947708        9.01251503959442       -2.99875603541706
O           -0.65636188096876       10.31770985107091       -3.18341147647774
C            0.09474121208471        8.58128367692220       -1.73202939716801
C            0.48153513933109        7.27172077073652       -1.49063192594772
O            0.84409692385352        6.90357841288205       -0.21175816563508
C            1.23821545983513        5.60654185560835        0.04094777447886
O            1.56062519854920        5.24653905491903        1.16078167706426
N            2.93861514077562        1.05368358316125        1.82730311093679
C            3.20446465980924        1.89749217184856        3.00149227132883
C            4.65078500655312        2.36086288488837        2.99629172007279
C            5.05221101953874        3.18897082269323        4.19532881695640
S            6.87885522969539        3.43133940543929        4.11770213931523
O            7.29444742991213        2.00530988305037        4.03977520864042
O            6.98288645570338        4.20833137357359        2.85640067631080
O            7.13115806407580        4.13717196779992        5.39413211007503
C            3.33972380626195       -0.30674819404789        1.80493167707202
C            3.88263889469340       -1.10310855188272        2.80430403491011
C            4.21016940612436       -2.40835928729607        2.50818925654582
C            4.00289740710765       -2.91881576263719        1.23672658472072
C            3.46746003287509       -2.12801919863036        0.23627160036334
C            3.13906077589784       -0.82065395632947        0.52494158209046
H            0.76042276010679        0.70223138595853       -1.48662769352832
H            0.52225958358988       -0.29558510812395       -0.05634979829993
H            1.25291285288075       -0.98755282751171       -1.50267795489346
H            3.23522993759449        1.39044120170017       -2.14002467664876
H            3.70773285954110       -0.30360422366339       -2.12682120340821
H            4.54919997142067        0.85402008068061       -1.09979844878265
H            2.13028533891014        3.46778188617710        1.17532726622365
H            1.63070444832498        2.63792944515441       -1.70254865639617
H            0.90031784876575        4.33177595559746       -3.13048847025637
H            0.11392553798908        6.09088207263802       -4.66652080274177
H           -0.56257061450135        8.41100737608605       -5.04198678124125
H           -0.88616489100370       10.47742541599469       -4.12359425541496
H            0.08829858531386        9.28133459019850       -0.91820430296902
H            2.98453213637645        1.32047908254917        3.90343671352737
H            2.51651374038088        2.74591765121257        3.01776926681855
H            4.85768235911210        2.92218839601609        2.07527670765034
H            5.30563945376187        1.48040143769323        2.93631466329356
H            4.81161434307803        2.68415116210451        5.13099837344357
H            4.55508053378840        4.15954365272283        4.20398914000497
H            4.05037512454292       -0.69943329535098        3.78659539685051
H            4.63652698191014       -3.03664060327054        3.27238827173953
H            4.26754336468669       -3.94114010348727        1.02287394768765
H            3.31409735049365       -2.51523325666370       -0.75525909679956
