96
 energy: -19.149377879918 gnorm: 0.000735790483 xtb: 6.6.1 (8d0f1dd)
C            1.06961178159705       -0.18409724675236        0.79623580035119
C            2.47721280764766       -0.19888599358584        0.18143174109170
C            2.43030507586198       -0.36883687644112       -1.34366246937324
C            3.27051462882217        1.05535277755755        0.57484172178470
C            2.97169407782731        2.40251225329386        0.30409563145589
C            1.88514726602535        2.89428247743600       -0.35268722246687
C            1.60024538005620        4.29335998869570       -0.48789250800100
C            2.39202719474954        5.27654914004849        0.12144312275397
C            2.08662960704464        6.60600221886225        0.01351226644777
C            0.97565524977044        7.03740557872265       -0.71490624954330
C            0.66355982858116        8.47121043229671       -0.82462297881401
C           -0.65237548794668        8.92004088021118       -0.96892240834737
C           -0.93810369650642       10.25923656696835       -1.04989695106672
C            0.07697535282349       11.22031380870911       -0.98847173241254
C           -0.21586861090152       12.66192611904247       -1.07850129956396
C           -1.33465408766768       13.21672067917050       -0.45552616862018
C           -1.82112411702136       14.56436895408144       -0.81375556489663
C           -1.84707388448063       15.00058725902019       -2.14122798689446
C           -2.30954345408309       16.25550342003494       -2.46392237959432
C           -2.76386007416932       17.10257737961794       -1.47297775867803
C           -2.75734735290121       16.68818980702676       -0.15599999856932
C           -2.29507135195578       15.43425588208360        0.17142449924313
C           -2.06457279237289       12.48483850550166        0.60008670748336
C           -1.38717730256471       11.75099535179735        1.57802748973737
C           -2.07580208445632       11.08150728509101        2.56298689407321
C           -3.45479491579404       11.13401315528929        2.60199835806342
C           -4.14373936264478       11.86210660596522        1.65247010086830
C           -3.45931188818643       12.53234647162462        0.66471972156947
C            0.72896143808589       13.50286618138139       -1.84466677991970
C            1.26878550387964       13.04746423552639       -3.04949589146606
C            2.15864802907186       13.81913832300401       -3.76099594134631
C            2.53493865362206       15.05938613919814       -3.28547742198673
C            2.02039067529186       15.52496774956719       -2.09204821877491
C            1.13113487864811       14.75618739145680       -1.37687453318384
C            1.39437098522488       10.76950322314526       -0.86090292534762
C            1.67920962868620        9.43097960099188       -0.77489787255353
C            0.18003631795045        6.06057224524847       -1.32516762768445
C            0.48123780964361        4.72612273295155       -1.21453373467607
N            4.33037714258178        0.66762592303622        1.30821549282859
C            5.30435505172685        1.57682611982784        1.93907081254250
C            4.65588742815960        2.44457400605288        3.03075034369749
C            5.10918325427002        3.90910002701890        2.98938095913927
C            4.18928516925303        4.84641114208825        3.74947210367258
S            4.54263316032337        6.59773416237646        3.29721140888078
O            5.90115073817472        6.77555150821267        3.87548208423141
O            4.44281101539935        6.53075119666034        1.81279801263424
O            3.41104840245481        7.29694010171398        3.95865495145328
C            4.38679432512839       -0.74783326532678        1.47361950062021
C            5.29826626794604       -1.54983490535894        2.14624753175788
C            5.11004447123561       -2.91639481285312        2.14310833938949
C            4.03106024983668       -3.48256613788877        1.48269353586539
C            3.11890307561727       -2.68723652470676        0.81290820002474
C            3.30214041289077       -1.32002289478388        0.81096594197077
H            0.46205146694940        0.62434381970355        0.39542108082428
H            1.12861587626823       -0.05588365358860        1.87644565168756
H            0.55149900451316       -1.12136565663628        0.59717961434099
H            1.88886077943242        0.44573806366207       -1.82062705073795
H            1.93913751502915       -1.30264008430221       -1.61428778646751
H            3.43887198824182       -0.38742810246884       -1.75486372494242
H            3.68196363299886        3.11453908002593        0.67354299725246
H            1.17903660136290        2.20906803298628       -0.78151604759796
H            3.24847708489343        4.99986077003924        0.70725071970916
H            2.70016824063587        7.32277570844649        0.53276699001412
H           -1.45311386693373        8.20193810287203       -0.98868731096052
H           -1.95702353438518       10.58692671601026       -1.16039578425621
H           -1.49976076594696       14.33754574549164       -2.91433272620020
H           -2.31701030624217       16.57761320439682       -3.49227518528722
H           -3.12507946242040       18.08555215622169       -1.72726017590682
H           -3.11470673072458       17.34841225647919        0.61712239834858
H           -2.28537199173677       15.11197494983031        1.19828408318484
H           -0.31187994433741       11.71634424481412        1.55277410232409
H           -1.53734014562066       10.51586542000895        3.30566045446751
H           -3.99260721524888       10.60960202400175        3.37473325168361
H           -5.22001433931841       11.90559192209132        1.68497471408360
H           -3.99519965959818       13.09736906165228       -0.07823929523603
H            0.97291661570032       12.08111864587204       -3.41981970217230
H            2.56362013977203       13.45381781055158       -4.69045253858065
H            3.23268165187260       15.66190090927758       -3.84357409645899
H            2.31686277862486       16.49154890796389       -1.71900333207700
H            0.73612681707518       15.11494186846306       -0.44235397643749
H            2.18871655786392       11.49431170886001       -0.81565989845531
H            2.70189644804269        9.11016787064876       -0.68128965418866
H           -0.67180522004393        6.36782250024253       -1.90589191157703
H           -0.14475477002135        3.99176769998877       -1.69153875110381
H            5.72133408629485        2.20326380102000        1.14469077483703
H            6.15010753242221        1.00593003934358        2.33057538923486
H            4.82169887844618        2.01697857217270        4.02696618949605
H            3.56788898574727        2.40834095926475        2.89782706536426
H            5.15744694519409        4.24386424759270        1.94526999571164
H            6.13981180029210        4.00615469334960        3.35432878204350
H            4.29270001216421        4.72681949505852        4.82796151181397
H            3.14417449575215        4.65499171131710        3.50475878137003
H            6.13335695466920       -1.11021711106455        2.66045598373212
H            5.81005121049833       -3.55168688311377        2.66068704718602
H            3.90024316816369       -4.55207783762350        1.49143034219309
H            2.27714881141706       -3.11755974069178        0.29925237788148
