54
 energy: -10.836149402940 gnorm: 0.000950885956 xtb: 6.6.1 (8d0f1dd)
C           -0.90570986811440        1.67953691550145       -0.95563826358278
C           -0.57652847588361        0.18240706213171       -0.91560244570174
C           -0.30003236602035       -0.38545082015402       -2.31294099193553
C           -1.68911718614039       -0.61103829405081       -0.20615314827766
C           -3.03157861536178       -0.76697525649031       -0.53308952354783
C           -3.72305634202596       -0.24864911361209       -1.61608137383410
C           -3.52399800960742        0.57276830575789       -2.80776310941542
O           -2.58987070782292        1.16475056072091       -3.32975749529224
C           -4.92696346525417        0.42668270326951       -3.15793305355189
C           -5.68755823592176        0.92392692875327       -4.20201914284803
C           -7.04653983219600        0.69029336938941       -4.35115981143382
N           -7.80219333376959       -0.03971764336003       -3.50851726997762
C           -9.15381831392342       -0.10566512836502       -3.88599373450228
C          -10.22682134511142       -0.74439051021108       -3.28275937834772
C          -11.46893200764166       -0.64245320954269       -3.87206471153928
C          -11.64159312533031        0.08241044479475       -5.04247165621782
C          -10.57181836261576        0.72065614919523       -5.64694601505622
C           -9.32593270945240        0.62516126799247       -5.06502270748464
C           -7.96601994860547        1.20305038437233       -5.46943623746362
C           -8.00727082155712        2.73529090320419       -5.47622175110167
C           -7.52370055198406        0.64931242790112       -6.82859334286644
C           -5.12668303494097       -0.39395901530188       -1.96814254347075
O           -6.06589951751744       -0.97911561610572       -1.44401775369783
N           -1.13377395071788       -1.18200358328446        0.88737625950223
C            0.23255260662367       -0.88442382747005        1.03906168748419
C            1.13568667182907       -1.27594685170593        2.01712192086050
C            2.43737092934873       -0.83018367351919        1.92924704635959
C            2.83669687641273       -0.00773558461832        0.88596531752987
C            1.93781604648779        0.38334187064227       -0.09152939717751
C            0.63439248821980       -0.05855302321376       -0.01156281209166
H           -1.79258894969404        1.87008166080697       -1.55568398923922
H           -0.08175603609259        2.24630597008099       -1.38649606699098
H           -1.08874873197062        2.05762585478240        0.04922996990424
H           -1.16451414452578       -0.26789415690964       -2.96226704439463
H           -0.06275996599879       -1.44680207054250       -2.25391577812582
H            0.54121212550126        0.12511723809268       -2.77928411993705
H           -3.61560248668450       -1.36856249011503        0.14095748662705
H           -5.18839289789774        1.53033162473775       -4.93547496730840
H           -7.40545252336118       -0.48706001563791       -2.67798279610829
H          -10.07524224900916       -1.30134043653862       -2.37530270130010
H          -12.31499378515955       -1.13097332542744       -3.41735114306397
H          -12.62066996878624        0.15072935571080       -5.48715844973339
H          -10.69977023815922        1.28398755468596       -6.55450688152011
H           -8.31719010190419        3.11237762533963       -4.50244920913919
H           -8.71208363947620        3.10198472710404       -6.22126282853600
H           -7.02643819881699        3.15105305981850       -5.70280070003724
H           -7.49208465359258       -0.43922431540994       -6.80436634844748
H           -6.53050297645922        1.01015391641300       -7.09237655871329
H           -8.21468101371975        0.95050369528315       -7.61481220810861
H           -1.62610205224639       -1.77537511748142        1.55308025420236
H            0.81218150451519       -1.91360532979572        2.82038217188990
H            3.15264421284825       -1.12419752354613        2.67968040028417
H            3.85826507930331        0.33104936026094        0.83461045436324
H            2.24116619732651        1.02002498644294       -0.90395351345798
