27
 energy: -5.142267415909 gnorm: 0.000797569161 xtb: 6.6.1 (8d0f1dd)
C            0.88991212562706       -0.00519058160543       -0.13356946699312
C            2.42321396783438       -0.05298881976592       -0.11177959861733
C            2.97338649554709       -0.02793986407867       -1.54369682431313
C            2.90379618326864        1.23703490234301        0.57782972050852
O            2.57902139355147        2.30222667871222        0.09758315476404
C            3.71939561772344        1.16619100670122        1.76754460732747
C            4.07899540770454        0.00098201144034        2.32283073013474
C            3.68355443663275       -1.26639527492165        1.76987754507609
C            4.08638062500875       -2.45725648030255        2.38596514471749
C            3.73072523269386       -3.67500969594653        1.87247069972590
C            2.95167587709315       -3.75479449553165        0.71453509379610
N            2.59034649589820       -4.97584871665566        0.18810759303336
C            2.54577720774513       -2.56314930618215        0.10297613550753
C            2.89428286321648       -1.32732333281222        0.60443196474137
H            0.54902606390885        0.91899856595871       -0.59902372884358
H            0.49435841854681       -0.03396507487213        0.88089906285981
H            0.47084780461633       -0.84339910498676       -0.68809820018480
H            2.68372969288830        0.89654208891956       -2.04212918230252
H            2.59954859683633       -0.86539641457392       -2.13066251180773
H            4.06153839872912       -0.07595251972201       -1.53396757437371
H            4.03009852623796        2.09962770795673        2.20129154905448
H            4.68652370394182       -0.00242307197039        3.21151308579549
H            4.68535370230284       -2.40317210979503        3.27870740009371
H            4.04452841962496       -4.58548320567786        2.35179068947345
H            2.96870638611971       -5.84995452051544        0.52464625174102
H            2.13922142132831       -5.07300279630082       -0.71064584475667
H            1.94304493537375       -2.62678757581502       -0.78385749615797
