34
 energy: -6.289263549445 gnorm: 0.000738266902 xtb: 6.6.1 (8d0f1dd)
C            1.08663152754472        0.04861835355425       -0.51701496724645
C            2.59330345521055        0.03269205344866       -0.22831109208271
C            3.38354144100673        0.11675140540063       -1.54071658613105
C            2.91291927832064        1.30843047216590        0.57247113269884
O            2.66690730020245        2.38372929827776        0.06859194361990
C            3.49364324298832        1.21269702453608        1.89220006442411
C            3.78352158104680        0.03705219185420        2.46521440159368
C            3.53367127497841       -1.21902160885232        1.80898507424384
C            3.85866631967220       -2.42169633590087        2.44659139805922
C            3.62882513053914       -3.62766931834367        1.84060882579459
C            3.05692505443239       -3.68207468260941        0.56803347692314
N            2.81637508759027       -4.91767735097597       -0.06396232933197
C            1.76701470691334       -5.18392254475917       -1.08886921754243
C            1.49405602142926       -6.55517623558256       -0.44530774992618
C            2.55672313275760       -6.21807098303572        0.61630537868084
C            2.74178691806060       -2.47981955015215       -0.07146848517972
C            2.96502591124010       -1.25524663400667        0.52112765387789
H            0.80574063532143        0.98130732454179       -1.00522508925285
H            0.52058255274645       -0.02632105827788        0.41065354454090
H            0.79357004915221       -0.77728595163148       -1.16354252779665
H            3.16413780625978        1.05253151173099       -2.05372465076200
H            3.13760755715377       -0.70583821556152       -2.21063388544299
H            4.45431808540590        0.08726860765028       -1.34274885895093
H            3.69113726033984        2.13668098855111        2.40522233374273
H            4.21790861815604        0.01524465259826        3.44994430478280
H            4.29823755519873       -2.38816128434998        3.42867473085534
H            3.89238726969189       -4.54577505439401        2.33541481972064
H            2.19009790878821       -5.21762183408503       -2.10118928575182
H            0.93529101274565       -4.47153568488348       -1.01866433737814
H            1.75865992675624       -7.40790093858152       -1.08442876649232
H            0.47831854207482       -6.66833992617812       -0.04323649713516
H            3.44495027353361       -6.86264020391713        0.61018198569376
H            2.16237731115816       -6.07823542505146        1.63055376799238
H            2.31885025158424       -2.52112306318015       -1.05790051084039
