66
 energy: -13.611536642678 gnorm: 0.000702394380 xtb: 6.6.1 (8d0f1dd)
C            2.09395064121539       -1.70124111992587       -2.61094869972235
C            2.50811263858933       -0.79453652387843       -1.44587916496024
C            1.52404458675053       -0.90110186892751       -0.27512515041257
C            3.94666467308610       -1.10517356749323       -0.98598087210573
C            4.71790738731626       -0.00034024607617       -1.14675953782615
C            3.95373788302615        1.08780245111836       -1.71156704346333
C            4.34268843753569        2.37642994942473       -2.06240752372945
C            3.40932643409872        3.21982811434272       -2.61530519787660
C            2.08746872794852        2.80687203711785       -2.83096071096454
N            1.13765782526962        3.69351373975731       -3.42659071612242
C           -0.24982876872520        3.60336956963071       -3.06657136437594
C           -0.62744417097013        3.38122774496713       -1.74465842998839
C           -1.95664227202286        3.27924539158022       -1.40178659879216
C           -2.93261281214725        3.39804915280522       -2.37186287111999
C           -2.57400463892762        3.62129786630713       -3.68698701811549
C           -1.24539274993451        3.72437148249648       -4.03236180268403
C            1.55462149036523        4.64587819356715       -4.41672536084147
C            2.54313308798657        4.32382708275528       -5.34337050498066
C            2.93731699564913        5.23595462736015       -6.29594817024502
C            2.35053277768348        6.48535123777349       -6.34261388074806
C            1.36625938529386        6.81881025440860       -5.43276192961899
C            0.97067283403241        5.90832000519822       -4.47892178089556
C            1.70801171580984        1.51123444465937       -2.46682489700754
C            2.63474217538780        0.66110043751435       -1.91409135142099
P            6.37905581264668       -0.48287528475628       -0.66020906663464
O            6.91766442773072        0.33376959390966        0.54018417158983
C            7.47666789321294       -0.41509222163661       -2.07288361840680
C            7.08210295179356       -0.95058890897610       -3.27569935052492
C            7.93805788734034       -0.88800820486919       -4.36036822390054
C            9.17708877658727       -0.29141352126831       -4.22583836386494
C            9.56375957969441        0.24322978654699       -3.01185229355677
C            8.70551092025715        0.18013703033180       -1.92824153116011
C            5.98906842899792       -2.18126428768117       -0.22195069212827
C            6.76005695955128       -3.20713065905116        0.25757018418858
C            6.16089863127457       -4.43064577075695        0.50113938761768
C            4.80671412935014       -4.60720169327400        0.26432658206342
C            4.03114641942291       -3.57156719115359       -0.21585951247035
C            4.62188289490624       -2.32839022001182       -0.46888517455442
H            2.05819478141637       -2.74523527929603       -2.30386492224523
H            2.80425856602253       -1.61559256745372       -3.43262559110611
H            1.10896438143251       -1.42511383633625       -2.98562522548963
H            1.47349264695295       -1.92121216554024        0.10251276396206
H            0.52226313218552       -0.60161772368861       -0.58112736418407
H            1.83481466548560       -0.25347339279653        0.54399547821517
H            5.35788941928194        2.69103767156774       -1.89580019856378
H            3.68405652847924        4.22509422566439       -2.88228790341461
H            0.13821965229538        3.29783080504843       -0.99316690224845
H           -2.23570609335109        3.10745202123024       -0.37504027649467
H           -3.97300731033149        3.31650867722377       -2.10276659879183
H           -3.33540197321675        3.71204005535553       -4.44437349153236
H           -0.95841454793099        3.88739903160670       -5.05645161476197
H            2.98771482023962        3.34455421175949       -5.30988579942247
H            3.70405726978420        4.97430086534014       -7.00677311664798
H            2.66006261533202        7.19896505003151       -7.08855315263574
H            0.90814139679107        7.79367128059533       -5.46916103150175
H            0.20939035050503        6.16404600849066       -3.76287633414355
H            0.70129964256527        1.17816417750768       -2.63729911211459
H            6.11010165930172       -1.41050579207105       -3.36092221827600
H            7.63749077304272       -1.30319798607209       -5.30835076750238
H            9.84412421708047       -0.24242870603860       -5.07088444309544
H           10.53009796880951        0.70866231704305       -2.90785300601211
H            8.98093234626128        0.59299586107593       -0.96998790690819
H            7.80934831435206       -3.04883484816405        0.44055557733342
H            6.75077574915404       -5.24972187209857        0.87849712255186
H            4.35257876494238       -5.56473482695789        0.45991123274336
H            2.97978026601329       -3.70979216683441       -0.39319711793166
