65
 energy: -14.578939245381 gnorm: 0.000753456314 xtb: 6.6.1 (8d0f1dd)
C            1.07434231879077       -0.09998027098637       -0.08009511297257
C           -0.12575460188983       -0.07112679535669        0.15668842558477
C           -1.50791460125905       -0.01951081969726        0.42634492083609
C           -2.26878762984197       -1.18327000106184        0.47861305974523
C           -3.62143776385740       -1.12931508314043        0.74094499084957
C           -4.23623489167809        0.08751826799377        0.95524482509067
C           -3.49576526085260        1.25098486195397        0.90696820558555
C           -2.14314440852828        1.19888971102310        0.64504504621152
C            2.45051310830239       -0.11702714040296       -0.34893243795442
C            2.93420709948201       -1.02052137288586       -1.30683499383861
C            3.45871543106573       -1.79079289864818       -2.10016829068046
C            4.18897205952127       -2.61798145986220       -2.97787364369085
C            5.58014871754392       -2.56369473348466       -2.99801642071969
C            6.30511405271353       -3.35689378316967       -3.85972379996982
C            5.65549734670278       -4.22353834341451       -4.71404235584453
C            4.27681096019345       -4.29390163651451       -4.70400754564997
C            3.54855162385178       -3.49764562344924       -3.84486339512434
C            3.27198630477375        0.69801517308666        0.36559832572004
C            4.69200067082241        0.81848637831925        0.21026503972934
C            5.44453292536609        0.44443098069549       -0.88009384942896
C            6.82306115272157        0.62304082544277       -0.71873441074487
C            7.18477092935897        1.15433620605749        0.49872113113604
C            8.50382018970169        1.41630344887554        0.98763321551187
C            9.67825887862528        1.02915670877565        0.42301003024376
C            9.75372337145922        0.26363527942922       -0.74912070719188
C            9.76292925895778       -0.41721087379954       -1.76581351964131
C            9.68455292139998       -1.19544836316215       -2.93793424678606
C           10.14253160179103       -2.50898659978268       -2.95674210970425
C           10.06122085493491       -3.26734486591807       -4.10545675446129
C            9.52004907674785       -2.72698271435619       -5.25425812311435
C            9.05411281937026       -1.42786465501834       -5.24997657092112
C            9.13377446548727       -0.66838435528862       -4.10193346631293
C           10.87936591211933        1.37165149474856        1.06112194038928
C           11.93025324325242        1.65360141721897        1.62093863482691
C           13.14484321388694        1.96234529948229        2.26532378104211
C           13.47093972579703        3.27721355244437        2.58251357602470
C           14.66066628505567        3.57529996010472        3.21257615393961
C           15.54399962140718        2.56560461300384        3.53622311638231
C           15.23551824467936        1.25621032005823        3.22859630400341
C           14.04634521065925        0.95626256630272        2.59860621082455
S            5.74658839160702        1.48386343166111        1.42976892974464
H           -1.78447573700723       -2.13014711690303        0.31055980073844
H           -4.19904021293493       -2.03844781023711        0.77886532239886
H           -5.29359354321050        0.12915296739075        1.16014255489089
H           -3.97509436506289        2.20176021502697        1.07406673658725
H           -1.56132286055630        2.10408728809434        0.60623279996231
H            6.08898408209127       -1.89001769571189       -2.33017693567598
H            7.37983387398295       -3.28753405282521       -3.87500607920091
H            6.22373620367859       -4.84235780813879       -5.38928067562178
H            3.76803994314698       -4.97101876468952       -5.37104917623399
H            2.47282943328947       -3.54687940125710       -3.83660860641271
H            2.82538868611331        1.29268157921705        1.14434768460983
H            5.00957229540718        0.05905683007649       -1.78662406190241
H            7.53338118689951        0.35755570330236       -1.48251145062026
H            8.56071776175162        1.96045927599695        1.91494428367261
H           10.56530849904856       -2.92569585604226       -2.05839574128604
H           10.42290900004564       -4.28268160458805       -4.10680979233895
H            9.45751720995769       -3.31976551025608       -6.15228830477732
H            8.62557159691067       -1.00699853577525       -6.14490184777890
H            8.77111871297705        0.34549794326551       -4.09437610944537
H           12.77865839588375        4.06163640984786        2.32797432590411
H           14.90079134505435        4.59820460803628        3.45258606053485
H           16.47377300773738        2.79942086770361        4.02871594757503
H           15.92460551855110        0.46687493971907        3.48106730537522
H           13.80122113466147       -0.06386258129062        2.35639185136333
