92
 energy: -16.574550748196 gnorm: 0.000753548048 xtb: 6.6.1 (8d0f1dd)
C            3.64115070844544       -3.08043805157861        1.82107307483590
C            4.44596802720416       -1.79789979303829        1.57176458562280
C            5.14225366715664       -1.81543306664134        0.20483225042381
C            3.57280810158288       -0.54333353120180        1.74220298478443
C            2.48242415178210       -0.10217570258249        1.00595057890824
C            1.92503823028740       -0.81256130014000       -0.05172555794776
C            0.84515621028384       -0.33247336361101       -0.78473947515505
C            0.26343406537423       -1.01970054882860       -1.84033282279272
N           -0.80989423952230       -0.53108220687576       -2.53706371608324
C           -1.50102689698978        0.72628246363560       -2.20953885601025
C           -1.20768356093642        1.16723372862426       -0.77581119991133
C            0.28500170129718        1.02417488572080       -0.41699274734121
O            0.49253149319725        1.31654337010640        0.97748607521182
C            1.87630028789983        1.23631742881562        1.36679753873069
C            2.03096235710206        1.56484480616507        2.86481619531948
C            3.47113006581623        1.38912096459962        3.34453179653190
N            4.07152200249014        0.15549644318043        2.81000429794216
C            5.21032963214914       -0.46015980998605        3.38138750514045
C            6.01817678728597       -0.06748998564076        4.43855126226067
C            7.09723548536136       -0.85515490503535        4.77685569420189
C            7.38441724451006       -2.02976697043674        4.08390948138242
C            8.59231427742219       -2.84437281766496        4.43179522684674
C            8.37416914875947       -4.31865190805573        4.26186054529124
O            8.20208349640685       -4.78098049758754        3.15106208528868
N            8.36234775080974       -5.10843963078826        5.38852569247389
C            8.14820040187644       -6.53995989421138        5.28430687259690
C            6.77806027876866       -6.87362002575441        4.71574337965490
C            6.55366909342290       -8.37308621362480        4.53388723708197
C            5.18225856500039       -8.70687554402736        3.94993373224957
C            4.95900668179984      -10.20779171332701        3.77451950394758
C            3.58504252961769      -10.54275935408797        3.20912746321077
O            3.35092707703413      -11.93045262265454        3.10650967386825
C            6.57062759769086       -2.40709966092451        3.02368450774843
C            5.48923263392301       -1.62913254093027        2.67671138685925
C           -1.23320897530389       -1.39983541480288       -3.57082112962666
C           -2.26292581207101       -1.27560129067156       -4.49476605254869
C           -2.46265239884710       -2.29803303610728       -5.39804267805788
C           -1.65406363804000       -3.41919674393903       -5.38331984787938
S           -1.92738764418041       -4.75951228301918       -6.56876593961168
O           -3.06612737429130       -4.25403670684995       -7.38223631720042
O           -0.60997515688923       -4.82829951815548       -7.25921615034832
O           -2.22794129624429       -5.90377503924954       -5.66513447966190
C           -0.62719245527918       -3.54652709951508       -4.47281032049435
C           -0.41637520061005       -2.53105630428250       -3.56458623171539
C            0.61697079273018       -2.38672293323928       -2.44860843894734
C            2.02680386734161       -2.38624499716647       -3.05380322166238
C            0.42864160984770       -3.51896035284904       -1.43012225096485
H            3.15749840243905       -3.04073042521388        2.79620178987793
H            4.29229546826747       -3.95346394956974        1.80460982800441
H            2.86890791446621       -3.22661718881887        1.07004592777477
H            5.71499080947843       -0.90051282680975        0.05909984665307
H            4.42791932235285       -1.89653353633068       -0.61062504991767
H            5.82975504802743       -2.65707585520152        0.13247730717644
H            2.34028109530597       -1.76416023852981       -0.30889519771962
H           -2.57504483312873        0.58048547272063       -2.36486108159981
H           -1.17735437540173        1.48776756872488       -2.92560595433448
H           -1.78120403531448        0.55669637951189       -0.07125212549921
H           -1.53185255178767        2.20036232535274       -0.60269600098220
H            0.85557685765033        1.78400459134277       -0.97267214910568
H            2.39868836864445        2.00858942676011        0.78163137563448
H            1.36510706752215        0.90037657705051        3.42412351969785
H            1.66644080456003        2.58038352061755        3.05931780046771
H            3.52039800213203        1.34964712182855        4.43763673795088
H            4.09202266198154        2.23315307624568        3.02954702717882
H            5.80426316628009        0.84167868791890        4.97112074858366
H            7.73995331551115       -0.55983787365356        5.58812216888750
H            8.89921047073749       -2.63711804900977        5.46065302389216
H            9.42668846860994       -2.53971044095565        3.79385989786119
H            8.42045086909841       -4.70239734313230        6.32641675606422
H            8.28826778638842       -7.01607668626148        6.26142812609504
H            8.93143127919799       -6.94244481476457        4.63240441908462
H            6.66088167530885       -6.35962839888098        3.75429345359252
H            6.00134437063019       -6.45170757827213        5.36338343725339
H            6.67821151776617       -8.88302129079090        5.49632974342068
H            7.33793273183680       -8.78554744912387        3.88830271578248
H            5.05958056559252       -8.20062665649722        2.98520995696342
H            4.39782620142138       -8.29078738750310        4.59293429444364
H            5.08427033096291      -10.71835851466258        4.73565885678060
H            5.73498705857548      -10.62640089435404        3.12436829087581
H            3.44025263504766      -10.08527793097030        2.22210020540136
H            2.79590433897648      -10.13686635528504        3.85342664084975
H            4.04092218266405      -12.35510846368117        2.54910706386590
H            6.79057177392654       -3.30750971034974        2.48086449705393
H           -2.88394255749636       -0.39798328517984       -4.50035445250558
H           -3.25323345670833       -2.24038941006020       -6.12882914511154
H           -0.00574827734778       -4.42524939280060       -4.47520373626584
H            2.12894983039295       -1.57694853453190       -3.77567185947079
H            2.22434614555757       -3.32368013632301       -3.57198315197375
H            2.79324636596880       -2.25698709551218       -2.29384749409915
H            1.12814717604951       -3.43960299768833       -0.60182525651241
H            0.57617903042131       -4.48990194763574       -1.90103925223970
H           -0.58073239500451       -3.49612280106002       -1.02129674450934
