109
 energy: -18.721919623182 gnorm: 0.004009769371 xtb: 6.6.1 (8d0f1dd)
C            5.45617017067234        6.83224582532328        3.90055535920036
C            4.18841095446343        7.57659066341797        4.12557209420811
C            4.29596161930736        8.81529700869555        4.94310557949753
C            0.86891294061656        9.84142864124814        4.43479931211331
N            1.71556298355203        9.24138933932818        3.74130143755694
C            2.37237186176158        9.95041169376462        2.61125770242592
C            1.81767837198961        9.52751097938506        1.25771521824167
C            2.54026209630002       10.14590129540544        0.05587724695598
C            4.05154006320304        9.85579425474914        0.04583603526464
C            4.88330669511740       10.91563590852997        0.79020993839845
C            6.07165377334811       10.31481193641374        1.47456151756092
O            5.90315162173647        9.63224349971340        2.46577539093613
N            7.32271831085338       10.55473597828628        0.95310438487774
C            8.49833910054483       10.19596009895931        1.71746896817314
C            8.80116736332780       11.24596464352976        2.77063056106173
C           10.05038412650087       10.96945410337979        3.58901612938431
N           10.33249899738409       12.06599377693368        4.49876269149052
C            9.38515494108399       12.47526803934457        5.40773311957999
O            8.34699675240563       11.86640091043390        5.57381763510841
C            9.67630439485935       13.70781831235326        6.20562492240369
C           10.58274458180237       13.42467509799470        7.39637851616033
C           10.96937009549816       14.69281763477209        8.15424290509731
C           11.85596562528501       14.43171266392252        9.36666195074848
C           12.26342798973613       15.71487622102503       10.08716899703797
N           11.10848973782578       16.55152453595646       10.47545240368930
C           10.74145451075380       17.52709849344939        9.58047983886261
C           11.26384281039915       17.96587102807125        8.50959599159907
C            7.83307957369685       16.66806868151603        7.68940295492939
C            7.52920580960716       16.23569047235262        8.83070627210933
C            7.28305866790342       16.17938958774641        3.97348648158158
C            7.36668079126552       14.92486376979869        4.00261521828078
C            4.54640446827580       12.47358925643904        4.28821772228340
C            5.23496456704964       12.18730771570444        5.29903565195648
C            9.13400770687295       18.39654734558470       11.92473217413174
C            7.88701607609845       19.13216732522833       12.26350275721460
C           10.36385736573705       19.21870658955222       11.74680764372270
C            9.16818815100132       17.01349136751769       11.97020814413788
C            8.08871196433358       16.29493444115333       12.59232595671675
C            8.25870908360477       15.03313708137979       13.05082527052244
S            6.87749998330653       14.21274632756437       13.88281289320926
O            7.54672041683654       13.59230124374925       15.05808722426282
O            5.96409664660688       15.35183626821112       14.17158213558800
O            6.41384607397334       13.27019183985511       12.82796962141404
C            9.48164732558585       14.38021617872894       12.90958879875376
C           10.49617262524010       14.95851282682539       12.19560682326096
C           10.33009239858637       16.21209960042567       11.56840124316567
C            1.73377696753401        7.79413355488514        3.69788882828572
C            0.54540833348270        7.13573884354976        3.41273713115927
C            0.52966819417164        5.80945334500959        3.03675882140947
C            1.71995972611664        5.11077409404142        2.92585147357040
S            1.71374882649810        3.39064406285471        2.36741560658201
O            3.09745845909483        2.94898021683770        2.69128671116042
O            0.62105726602532        2.79383505572975        3.17978757338592
O            1.41699232060047        3.55781346827426        0.91864364130714
C            2.90544850900776        5.69994812772698        3.23136799262814
C            2.97579494225215        7.05268291695203        3.68837997131628
H            5.51534429472819        5.94970992772244        4.53818696562289
H            6.31875365610801        7.46349801973300        4.11624329220382
H            5.54261722206004        6.51681880123616        2.86058495907080
H            4.97896303477366        9.52319461386160        4.47324252735806
H            4.68660322330283        8.58392683056905        5.93418320391593
H            3.33558946552712        9.30643986038237        5.08412789148561
H            3.44202513125480        9.73445068050937        2.66317188929357
H            2.25611854244739       11.02794585385461        2.75811428391745
H            0.74735662350210        9.76118559153415        1.22199936866690
H            1.87241078203254        8.43610959405380        1.18197231551214
H            2.38015065105795       11.22980962498277        0.03797815639660
H            2.08116140992394        9.77582025314465       -0.87060882079123
H            4.42822637588920        9.75530350190866       -0.97985707308962
H            4.22784951951015        8.87404766820128        0.50055164519864
H            4.27478540933074       11.41366107861541        1.54986152487754
H            5.20038329413289       11.71217882166156        0.10924130644616
H            7.45901710704933       11.27051900076198        0.23471513323635
H            9.35194570994646       10.05563265412028        1.04476891109889
H            8.31010438376562        9.22467481862235        2.18838423747303
H            7.94165854197955       11.34023166125908        3.44592670763371
H            8.89502331707170       12.22552700328507        2.28993248024744
H           10.91191491576657       10.79321583034674        2.93517826758472
H            9.92102494971741       10.05966342980871        4.18526934166259
H           11.13317539073848       12.66200880419211        4.27250407646962
H            8.72852947992567       14.13422080625926        6.54781073652619
H           10.12936146880931       14.46178067187164        5.55424440277206
H           11.48694677279050       12.90886741845096        7.05313962387746
H           10.08714540172864       12.71694524275371        8.07137762398763
H           10.06237563904231       15.21656157805592        8.47590914701482
H           11.47459313940255       15.38722942620254        7.47322409331150
H           12.74717170492891       13.87262042910535        9.05729547825054
H           11.32286495618579       13.76461036589837       10.05174953057881
H           12.90317854586640       16.31649208931121        9.43437115942705
H           12.86623875141898       15.50909318968836       10.97682176578533
H           10.85583333969987       18.72587784690786        7.91146522960895
H            7.47991467830411       16.33465444994544        6.75723545255280
H            6.86380280628980       15.45739069689758        9.06819038834760
H            6.41753530796665       16.76375395363885        4.09542424648091
H            6.58595610173666       14.24035920030614        4.16433057865566
H            3.50786338231540       12.63385573921236        4.28327625924732
H            6.27479038360933       12.03547798558794        5.31268111868251
H            7.98403626028255       20.19305352297419       12.03253273750031
H            7.65745643335488       19.04209333803997       13.32606001852075
H            7.03765939661169       18.75155764924793       11.69521440604780
H           10.33688462064003       19.76280424172302       10.80256079700512
H           11.26183431283670       18.60114607995634       11.76182042718483
H           10.46056643045032       19.94903602080618       12.55070936854672
H            7.14597470728900       16.78033892499773       12.77784201314297
H            9.60024645911669       13.40040027562784       13.34362293106536
H           11.41401957502961       14.41398978687162       12.06703301667578
H           -0.37220667495912        7.69741765527885        3.42683723297620
H           -0.39603398804083        5.31007386471295        2.80054359103904
H            3.79825191993912        5.10384943966445        3.16026544779106
