106
 energy: -18.270170315082 gnorm: 0.001924540992 xtb: 6.6.1 (8d0f1dd)
C            5.74877824737611        7.40244845742100        2.49496088377569
C            6.44198205875682        6.10687620058405        2.74584430511780
C            7.83535841797777        6.19108243678601        3.25493613753532
C            8.64788536291882        3.37927734914863        3.01465355859136
N            7.50778075254938        3.35430058216483        3.52607554166266
C            7.32891994752910        2.48412484419939        4.72632864470375
C            5.91597157859396        2.39374205203060        5.32437626762301
C            5.56346328223160        3.50973813237579        6.31138316495586
C            5.43315477796734        4.88207456847249        5.66508427184013
C            5.09472077900101        5.99395903870520        6.64977478485403
C            5.17143076480331        7.34291325780311        6.00233003708498
O            6.21212328653325        7.69123232737585        5.48085367092985
N            4.04656903228662        8.13854971064662        6.03104775157791
C            4.00972448980332        9.45446530517559        5.40981972341110
C            5.28628782229216       10.24298688666432        5.61045238680297
N            5.24484239363012       11.55703896175581        4.99004903409744
C            4.16687140794591       12.39576269869184        5.17246029691792
O            3.15505491133433       12.05257290024716        5.75174328188699
C            4.29076912995856       13.80097460525594        4.66945767271986
C            4.87616896798848       14.71901183513403        5.73387942570748
C            5.03876717536636       16.16615684594216        5.27622360202215
C            5.67474929206442       17.04705502995355        6.35012464204132
C            5.85951880933005       18.49367081094270        5.91603294266661
N            6.48026206516913       19.32016673663184        6.97888981970611
C            5.68351509591789       19.61533126820087        8.06044966879475
C            4.48843926005771       19.31055309381486        8.36154662530087
C            6.16716948131968       12.58875065229352        8.46984881763662
C            4.92006690593949       12.43824065706409        8.53225359681938
C            8.02246945446008       13.30811431651555        3.97284926996993
C            8.39170837767205       13.00066909853759        5.13532945798609
C            9.01437459877465        5.10337160489692        6.84247035363620
C            8.81910731372256        6.34019245656906        6.74000191965104
C            8.50783987757718       19.65327981356329        9.20202306214166
C            7.81609251551093       18.35151800165408        9.40928931597228
C            9.28904134177385       20.17770610340940       10.35506846390537
C            8.55982982096337       20.28327855844600        7.97132870137486
C            9.56016152879860       21.28652554056448        7.73818640909477
C            9.87609212143599       21.69730164100827        6.48936959909306
S           11.19797181050450       22.91630435677821        6.27523166180899
O           10.45579035472417       24.08347095701914        5.73154907802462
O           11.71627903545708       23.06116867551176        7.66218231919574
O           12.09360438197603       22.22041580930618        5.31317690684058
C            9.21039047785622       21.18373605922270        5.37997177032559
C            8.17331902649759       20.30576979980612        5.54134669022665
C            7.74342968928083       19.89100153978251        6.81954927892323
C            6.36265457554614        3.59123863542933        2.66303293414532
C            5.71301677870096        2.47871675527357        2.14575631364698
C            4.51027581579825        2.58454582842137        1.48264917784227
C            3.92460959911360        3.82759653251119        1.32098838202062
S            2.30776937376514        3.97754439556300        0.52058968243009
O            1.41818690590648        3.42059091868402        1.57454347931316
O            2.20342474704567        5.44603001999999        0.30555411600057
O            2.47358739379607        3.13614409303708       -0.69316486809729
C            4.54587430889334        4.95219138801731        1.75954314777310
C            5.81794925574923        4.91123499520739        2.41072186242676
H            6.31843003825576        8.24014246943041        2.89729580911271
H            4.77379496010373        7.42116430682208        2.98233628797610
H            5.60962386002767        7.57648900722604        1.42778117363148
H            8.02226540638332        7.15679232594342        3.72558980720703
H            8.55152287027768        6.06668595120330        2.44263233636023
H            8.04099732867101        5.43270904611678        4.00665284833134
H            8.03391452479431        2.82362089638857        5.49049805470116
H            7.67308669785837        1.48704406945492        4.42956572949164
H            5.80564236362915        1.42723117840624        5.83434857844670
H            5.17324494351485        2.37283932174845        4.52125479339806
H            6.32193331861321        3.55002012655337        7.10162647444879
H            4.62434878782329        3.27313400075665        6.82701956902554
H            4.68059175295879        4.85356028393852        4.86839851021177
H            6.37205647765491        5.13086867842040        5.16522256042207
H            5.79295700701926        5.97346712104862        7.49218085712221
H            4.10019906609382        5.83673164609773        7.07788394347603
H            3.16811118908878        7.79329252700328        6.42468072952833
H            3.17869630989770       10.03578984913404        5.82467286724197
H            3.80339241731618        9.33714929775326        4.34113756778886
H            6.12238685618514        9.66686714805024        5.20258134375745
H            5.48640739921271       10.35937275717546        6.68040054389469
H            6.15108220048555       11.95260901284820        4.72769156247417
H            3.30012916299124       14.15309822501038        4.36609603359383
H            4.91052430558346       13.81481145388550        3.76759658122679
H            5.84826592970612       14.32666891444682        6.05350345828382
H            4.24548512856931       14.68259677093277        6.62990696354513
H            4.06407465534482       16.57558761082850        4.98783638908493
H            5.64653731442358       16.19851755680637        4.36485029957130
H            6.64606514576195       16.62957933237075        6.63778361688723
H            5.06841294770069       17.01099645507755        7.26159103649974
H            4.89953866083057       18.94413171329683        5.64866898068743
H            6.47041534929851       18.52119372683353        5.01284849173408
H            3.98706978433570       19.62035360848305        9.22992516839019
H            6.76841142106607       12.57032501804756        7.60690003878876
H            4.26344575930344       12.26909447300675        7.72820098341541
H            8.63513579069054       13.48518758868564        3.13686457788907
H            9.37946760014313       12.86665321707947        5.47008904255183
H            9.87345323588470        4.65326425721472        7.24585486409166
H            7.96101115840912        6.79338716875105        6.33522566064052
H            6.90455983479009       18.48066926316486        9.99300966601412
H            8.45917098614162       17.65232554698293        9.94473209792761
H            7.55471906587419       17.88593285119110        8.46032613946037
H            9.01399435695025       19.66958762114824       11.27951958124821
H            9.10470344420854       21.24218469118662       10.50318133372592
H           10.35867249769349       20.03125338119675       10.20215432252418
H           10.12855333000389       21.68728845520615        8.55931525239755
H            9.50289521597914       21.52182190372760        4.39868508660370
H            7.61106586265520       20.01648704973230        4.67291907644203
H            6.15301721028112        1.50913504655835        2.30096757690711
H            4.00578310540488        1.71109134581814        1.10203350852473
H            4.05611998475811        5.89357959028618        1.58346317915358
