59
 energy: -12.368609445562 gnorm: 0.000807429059 xtb: 6.6.1 (8d0f1dd)
C           -3.21697689169298        1.78650130462747        1.19258085269558
C           -2.12855265191754        0.86416187083543        0.61947913308428
C           -1.93246472773768        1.16948199706176       -0.87432010097373
C           -2.55306199590691       -0.62766736912143        0.80030887663132
C           -1.45353766004021       -1.61166304028936        0.50414939108929
C           -1.81805810610492       -2.92443344652403        0.05882893856872
C           -0.95407596795362       -3.91036365700313       -0.26968391810663
C           -1.31853833099121       -5.22780872010769       -0.73698573421197
C           -0.31106466577942       -6.14565576781548       -1.05796416686879
C           -0.61695652023753       -7.40070570245396       -1.51962982309563
C           -1.94233749845557       -7.79649160233323       -1.67989805717400
N           -2.26151953494340       -9.10312222876231       -2.17461180803843
C           -3.22459379741675       -9.98685845052864       -1.63922591989796
C           -4.05959461587586       -9.86603740574726       -0.52958748756781
C           -4.90314909996864      -10.90490554971055       -0.22047470830478
C           -4.92852130377457      -12.06666309719741       -0.99501901755134
C           -4.10506139367769      -12.20667970940233       -2.08635737475201
C           -3.24190642710192      -11.16065790505483       -2.41064389913661
C           -2.26022670345396      -11.00121914101631       -3.45817841419132
C           -1.85989884955080      -11.83571851309980       -4.50113407367089
C           -0.88599273164145      -11.39159299558284       -5.36303900101564
C           -0.30859793444009      -10.12991042435888       -5.20494332847190
C           -0.69213671901528       -9.29867779868282       -4.18103716389107
C           -1.67216417783137       -9.73635389444197       -3.29149142205758
C           -2.95101273686714       -6.89214560467451       -1.35698006984556
C           -2.64877252748533       -5.63519463428620       -0.89636970787497
C           -0.15677556750974       -1.23635797042141        0.66054291832209
C            0.25578017430247        0.06476904390999        1.07514151389393
C            1.58691934521228        0.36153742445863        1.18030351663503
C            2.00572695527959        1.62883851653006        1.57310287312830
N            2.30735660890838        2.70459751238822        1.90092488585499
C            2.53697717137501       -0.61056174554831        0.88168403282596
N            3.27074320582079       -1.47381212825818        0.61350983931002
C           -0.78813065518340        1.10027073544086        1.38120047053810
H           -4.16509993675160        1.63615506745562        0.67766992732227
H           -2.93583962573037        2.83313485794275        1.08184259987284
H           -3.37603954490999        1.59285570259250        2.25266096202322
H           -2.85399335254063        1.00373355312043       -1.43096326528066
H           -1.16161430118074        0.53011760157128       -1.30269553334189
H           -1.62946360140181        2.20505123172812       -1.02392987083577
H           -3.41543382996571       -0.83410162811236        0.15870673820733
H           -2.89879507124273       -0.78173803321180        1.82734692964079
H           -2.87150054654181       -3.12077779728502       -0.01933785023282
H            0.09992145898182       -3.71807267255207       -0.19357140493402
H            0.71823748060352       -5.85468067048138       -0.93700392761572
H            0.16510715086727       -8.10431189332679       -1.74478286826879
H           -4.02371651585466       -8.97678282856680        0.07333438938820
H           -5.55338546149160      -10.82430875465782        0.63500893255941
H           -5.60090035781354      -12.86576457077350       -0.72980884321807
H           -4.11359822070520      -13.10029106094156       -2.68496982695459
H           -2.31406890789127      -12.80362492871301       -4.61890034976095
H           -0.56501336344647      -12.02388014584021       -6.17430781433069
H            0.44763153771987       -9.80365032005750       -5.89981656491276
H           -0.26187479164223       -8.32028042047427       -4.06637074429381
H           -3.97559526149555       -7.18834833190448       -1.49818152867555
H           -3.44725700418568       -4.95550667029290       -0.66030811087983
H            0.62296261259124       -1.94386952763254        0.45292749637278
H           -0.40401805342857        2.09544079900200        1.13591949120026
H           -0.97618616084543        1.10767153857882        2.45927899102578
