46
 energy: -9.358023727744 gnorm: 0.000970466940 xtb: 6.6.1 (8d0f1dd)
C           -3.33457817115937        1.33795172673183        0.05788129173754
C           -2.20041141331619        0.35101180278943       -0.26426307817986
C           -1.97084828176469        0.31171885411505       -1.78377358323485
C           -2.58293261966313       -1.07446035748863        0.24752489005929
C           -1.44135957810631       -2.05551118704165        0.24418446222273
C           -1.74910533988993       -3.45463889397183        0.15717418611593
C           -0.84900245962272       -4.46019578584974        0.18373822217792
C           -1.16086678424385       -5.87001552941529        0.08340273309051
C           -0.14602797666409       -6.81346192700468        0.27713451787404
C           -0.40653460976443       -8.15831790250276        0.18490663748537
C           -1.68298206966843       -8.61117807173988       -0.10868676272828
N           -1.92378502324556      -10.02477238868338       -0.20445399341844
C           -2.76240832764112      -10.66672670079451       -1.09222676319178
C           -2.55720233873334      -11.97976498265177       -0.79749865930317
N           -1.64993587795779      -12.03213434837559        0.21007192098583
C           -1.28542514770945      -10.90946615107228        0.56199679158330
C           -2.69938647041443       -7.68717220595606       -0.30865840649611
C           -2.44533235680142       -6.34023196115582       -0.21306416160244
C           -0.16378402783563       -1.60397117422041        0.32536119275909
C            0.19502877151523       -0.22505422325814        0.41058385063835
C            1.51142705736574        0.14046610495349        0.45129337607949
C            1.87653890353471        1.48096233511847        0.52639641068788
N            2.12710808754735        2.61641868582617        0.58176158731753
C            2.49968694806318       -0.83863570629833        0.40784322704532
N            3.25754323563201       -1.72128264857937        0.36415928359449
C           -0.89176938882383        0.80998290637918        0.44905400862726
H           -4.26238669273909        1.03554816407876       -0.42601249418206
H           -3.08604167979072        2.34089563970543       -0.28684493375769
H           -3.51612502405409        1.38818307527446        1.13073034621062
H           -2.87163602637123       -0.00621848576250       -2.30701175753506
H           -1.17140731760028       -0.38342678520433       -2.03657137284084
H           -1.69103040273894        1.29442536385130       -2.16113022431959
H           -3.40287910539296       -1.46385670947626       -0.36382414825716
H           -2.97808269829695       -0.99688858972316        1.26514370548166
H           -2.79137076260750       -3.70456684800647        0.08143364456713
H            0.19127608525479       -4.21968331031283        0.30036751583981
H            0.84980313251320       -6.47349437233988        0.50375442934641
H            0.37319247922560       -8.88601225558651        0.32649422698387
H           -3.39790337871522      -10.22529802821620       -1.84308523889591
H           -3.02828245430107      -12.82381261911971       -1.28619638827570
H           -0.15899107117106      -10.40986688745751        1.97420765829637
H           -3.69106112439529       -8.04076360914286       -0.53097488635404
H           -3.24401623660608       -5.64057226902444       -0.38043186026788
H            0.64461438185018       -2.30965569037055        0.31139639773524
H           -0.53536168685731        1.73700337537388       -0.01083694801707
H           -1.11070515779662        1.05648057168228        1.49250914649054
