45
 energy: -9.260720827977 gnorm: 0.000628136245 xtb: 6.6.1 (8d0f1dd)
C           -3.31367209224100        1.35598825604123       -0.02341218748984
C           -2.17545591426219        0.36278117760111       -0.31035226777044
C           -1.91332240429137        0.30654044008626       -1.82416157778348
C           -2.57130124900404       -1.05636969202909        0.20865591159900
C           -1.43258446310923       -2.04051484903726        0.22808959271323
C           -1.74207715632063       -3.43877254320628        0.14117275984676
C           -0.84292632800727       -4.44560086221423        0.17093245508600
C           -1.15324692455437       -5.85554930978600        0.08388112278203
C           -0.11815798928490       -6.79254775827555        0.17186572578701
C           -0.37659150348929       -8.13839083864150        0.09336344260444
C           -1.67140984009106       -8.60314003363376       -0.07869358166620
N           -1.90132813045973      -10.01676495009303       -0.15492347590478
C           -3.09235221694167      -10.68485625542695       -0.42861632065172
N           -2.85523454771062      -11.96345824806917       -0.40179086499632
C           -1.53773565916003      -12.07289533700944       -0.11503042841115
N           -0.93626535308194      -10.91941966852564        0.03801730813591
C           -2.70850742079045       -7.68380544893445       -0.16677626588191
C           -2.45653508062740       -6.33581857188473       -0.08660906264376
C           -0.15563849277301       -1.59110646856073        0.33351101227353
C            0.20297620009634       -0.21278137829956        0.42292385240266
C            1.51860345644396        0.14953768497355        0.50212639966183
C            1.88274715327049        1.48958952401679        0.58482014813477
N            2.13229778570135        2.62494232321347        0.64570868903066
C            2.50447093384914       -0.83235162722547        0.49434516574600
N            3.26341087097738       -1.71477248515444        0.47578769151122
C           -0.88132807336300        0.82556319793234        0.42663474191959
H           -4.23126840169021        1.05177750893100       -0.52510276427575
H           -3.05423836029167        2.35464240245633       -0.37236794543142
H           -3.51919627237497        1.41742868868166        1.04442137011120
H           -2.80315853081404       -0.01608448533436       -2.36288536659877
H           -1.11004528412068       -0.39257453210904       -2.05240908681172
H           -1.62421841857976        1.28466843477657       -2.20617886920446
H           -3.38513106887642       -1.44785930627279       -0.40930030301228
H           -2.97839534436756       -0.96834576090363        1.22063514213544
H           -2.78376806105400       -3.68657032679050        0.05348469813850
H            0.19841012962022       -4.20336706342437        0.27290409512636
H            0.89239998548747       -6.44685569797227        0.30559767205782
H            0.42019275509374       -8.85785505026555        0.16541811634782
H           -4.05246951217677      -10.23896807538502       -0.63917682058067
H           -1.02710650341255      -13.02396079228002       -0.02342604115873
H           -3.71581613521120       -8.03848679220869       -0.29329151152008
H           -3.27551751441621       -5.64328717893416       -0.15618504960798
H            0.65110784232721       -2.29866262839456        0.34269269893229
H           -0.51225886270131        1.74701838698283       -0.03433752654824
H           -1.12224800321953        1.08304599058740        1.46251750586551
