73
 energy: -12.944202809110 gnorm: 0.000625894482 xtb: 6.6.1 (8d0f1dd)
C           -2.25539896388678        0.59969604124876        2.04652949161436
C           -1.69649240680144       -0.28694634700528        0.92183783300223
C           -2.49917760279894       -0.04675337686486       -0.36714183743059
C           -1.79958296513462       -1.78960904510088        1.33392118007657
C           -1.06287964172689       -2.72086806299962        0.40968438659766
C           -1.52925333268051       -4.06800024516803        0.28649589323940
C           -1.03256783149283       -4.99528655703466       -0.56557586238834
C           -1.50589384186753       -6.34864275732194       -0.70326286462522
C           -0.95972045583569       -7.17111453420143       -1.69757491525954
C           -1.39330251992521       -8.45784684635299       -1.87199567210710
C           -2.39587945165872       -9.00322128493595       -1.05860776419736
N           -2.84224191067272      -10.31826158754933       -1.24131555642684
C           -3.99428090487314      -10.85800757085836       -0.50033318299416
C           -3.59762929336498      -11.43104458224844        0.84752124132567
O           -4.73343659705142      -11.76525523167950        1.62918659168317
C           -4.41970440611415      -12.24290765373776        2.92212671205243
C           -3.38216736427085      -13.35506163054078        2.91045479119756
O           -3.71819907586846      -14.33989188636381        1.95758415421193
C           -2.73458233234868      -15.34649880967783        1.81356920881468
C           -1.44805506522741      -14.81726022646510        1.20056052208523
O           -0.75475117474208      -13.96478124200732        2.09067459499485
C            0.39712560585819      -13.38693446179029        1.50389134840393
C            0.06720118757677      -12.16803843496324        0.65732265749713
O           -0.89981622599519      -12.45778870576993       -0.34370281986955
C           -0.77228384433832      -11.64167561055229       -1.50870269065782
C           -2.12431235640598      -11.27637212816242       -2.09634059971698
C           -2.93569527927682       -8.18227813836693       -0.05854330699923
C           -2.50495286071666       -6.89359846636332        0.11472186555012
C            0.01668631434719       -2.26448895137708       -0.28103989257345
C            0.50263274266815       -0.92669713443811       -0.21265304465188
C            1.58840846228557       -0.55274618679195       -0.95701866967712
C            2.06966300679342        0.75130984030032       -0.90870464656711
N            2.42924409218810        1.85634735520795       -0.83665840605651
C            2.21440002943596       -1.48458183799154       -1.77888688889311
N            2.67940490184739       -2.32122494032932       -2.44175284197114
C           -0.19647210263343        0.06247768231106        0.67538134205624
H           -3.30280603497884        0.37033515958982        2.23826586507994
H           -2.18474997816657        1.65371707633376        1.78093171522874
H           -1.70351352735293        0.45001439908018        2.97355802737729
H           -3.55061119636064       -0.29222936602926       -0.22401423808250
H           -2.11816423087887       -0.66211776412039       -1.18110339169789
H           -2.43530301509375        0.99526349064969       -0.67767982263479
H           -2.85468188566912       -2.07587870643399        1.38213356820587
H           -1.40713822480313       -1.91303598764901        2.34799122019941
H           -2.35411094848588       -4.34345691563500        0.91728815924833
H           -0.23028128328682       -4.71260759536156       -1.22140245564021
H           -0.19154784897513       -6.77243465392373       -2.33768472251780
H           -0.96749189047363       -9.05492177427021       -2.65792292351515
H           -4.49117797412909      -11.62347220328463       -1.10197611819113
H           -4.73902573869602      -10.06927487655415       -0.37244480981554
H           -2.98949991540261      -10.71610129412496        1.41113020381314
H           -2.99669655009483      -12.33547283113102        0.70474871665945
H           -5.36309979061473      -12.61431687669097        3.33737366460193
H           -4.10358409612566      -11.39333246789019        3.53789292086937
H           -3.29375402094684      -13.83741933338811        3.89080148818263
H           -2.39481662133757      -12.95989903359794        2.65417493285128
H           -3.17911713723730      -16.12898122396108        1.18737321647093
H           -2.54429159215288      -15.78478342900858        2.79887258780029
H           -1.66937196087899      -14.25020401978691        0.29063298538468
H           -0.77306831183634      -15.63698962267054        0.92909117240699
H            0.89564363684033      -14.15458690867596        0.90259111366369
H            1.08072695831529      -13.12738396137309        2.32074464735367
H            0.97243444989680      -11.77762301081174        0.17780572141041
H           -0.34681044310995      -11.36721595069989        1.27935506901517
H           -0.15364574769041      -12.19549319329181       -2.22500696702819
H           -0.22419215524566      -10.73254653072297       -1.24050773790819
H           -2.72712968048697      -12.18098958567002       -2.20600577144875
H           -2.03113266809451      -10.84776758155070       -3.09813054611558
H           -3.69093810541906       -8.57605654109810        0.59717513882657
H           -2.93550269711437       -6.29518880149350        0.89690408439540
H            0.54872883467413       -2.93666867778922       -0.92663065390881
H           -0.12529792675880        1.06396725309974        0.23967920352625
H            0.32952278285779        0.11326689584560        1.63361238458593
