68
 energy: -15.264818822227 gnorm: 0.000828188099 xtb: 6.6.1 (8d0f1dd)
C            1.25031025599527        0.35461636238621        0.53952156630642
C            0.05305278607607        0.16279289705012        0.69370236183378
C           -1.31219944646669       -0.16702598457453        0.82503609748313
C           -2.06230552075299       -0.52053856657193       -0.29202532008019
C           -3.38968875528547       -0.87156321994599       -0.16673059170894
C           -3.98971194585934       -0.87396691895308        1.07606392864522
C           -3.25935366394685       -0.52495164587392        2.19385375237403
C           -1.93107053710082       -0.17554027783834        2.07076610157594
C            2.63344239489370        0.43215638512228        0.29159538060803
C            3.11382616906052        1.35988299877029       -0.64981489825775
C            3.61486168363549        2.13136644588185       -1.45426367896354
C            4.27857186441075        2.98465321965673       -2.36012803572642
C            3.58742874711125        3.95110295449117       -3.08306678895458
C            4.25175937008028        4.77762111774806       -3.96474825797680
C            5.61537408280702        4.65228415977995       -4.13769801217037
C            6.31502756645579        3.69809288774217       -3.42724341104248
C            5.65261274132248        2.87103023060592       -2.54551054908323
C            3.44878340564155       -0.46725599205770        0.88256338524355
C            4.87690068183510       -0.63962745854372        0.60094300445532
C            5.76165856564740        0.43167720949928        0.48579997653709
C            7.08353018051728        0.21305326385385        0.16355464701572
C            7.54551308115073       -1.06744590218381       -0.05728637517862
C            6.69144134272200       -2.16754414895227        0.04616649326869
C            7.20270944509314       -3.51116818362920       -0.21576354890467
C            6.49781585847763       -4.64292803642125       -0.44165730574157
C            5.09187972441323       -4.71430263320775       -0.47129097215649
C            3.86930513846586       -4.73190605663632       -0.46123950106645
C            2.46101939635564       -4.66873487752122       -0.38200904753783
C            1.68957450140933       -5.82612002824996       -0.35558506390403
C            0.31592089724761       -5.75480110631945       -0.25091065671350
C           -0.31014843234334       -4.52753649453648       -0.16645375531484
C            0.44054240522635       -3.37075137816090       -0.19063780398101
C            1.81241666081014       -3.44032083561906       -0.30184727815383
C            7.20814641769246       -5.83569435025993       -0.67695967889652
C            7.82460265681380       -6.87269593010979       -0.87453854528781
C            8.53159874865669       -8.07319123768485       -1.09767904700327
C            9.67146602357579       -8.09029740553910       -1.89482152333551
C           10.36224782215071       -9.26405619606101       -2.11070046575245
C            9.92600353312614      -10.43939528395665       -1.53405246412076
C            8.79676121059499      -10.43935599419939       -0.74089410124323
C            8.10471350072543       -9.26648390154531       -0.52403717467485
C            5.36868627418230       -1.92368368182045        0.39621033639335
H           -1.58936967661719       -0.51810706525428       -1.25965121504229
H           -3.95866765417718       -1.14522124703083       -1.04027453860403
H           -5.02745918656100       -1.14841992345466        1.17347891087469
H           -3.72734923279861       -0.52699108781149        3.16483933658887
H           -1.35516422933159        0.09140124133675        2.94061729178679
H            2.52377965599806        4.04443908490495       -2.94427505752957
H            3.70502096928525        5.52266682651390       -4.51956866355424
H            6.13318527321033        5.29903837329419       -4.82713369469597
H            7.37987873371216        3.59933427099884       -3.56144147704848
H            6.19203411077126        2.12515311667368       -1.98674078620920
H            2.99818163402929       -1.18324453679210        1.54978263265273
H            5.40067539735600        1.43102380754657        0.65679543185304
H            7.75954618898089        1.04850846965992        0.08049697042167
H            8.57688482287301       -1.22965884567404       -0.31996949608128
H            8.27535268269764       -3.59972189561120       -0.24779128215006
H            2.18255094331487       -6.78176075387499       -0.41257221902186
H           -0.26909710209034       -6.65996052038698       -0.22975186796017
H           -1.38297858536912       -4.47223630691145       -0.07822863630480
H           -0.04344335094359       -2.41210319250891       -0.10718066135321
H            2.39804085485586       -2.53811016944136       -0.31970792064008
H           10.00773452146948       -7.17063227053803       -2.34255170005741
H           11.24384897655590       -9.26304322423576       -2.73071955627025
H           10.46652783804375      -11.35644774245637       -1.70307815501998
H            8.45505752139783      -11.35672724798028       -0.28995230009791
H            7.22294937155918       -9.26097164071360        0.09395352551044
H            4.68588270269183       -2.74297393477823        0.49396195147476
