49
 energy: -9.685284861574 gnorm: 0.000573363789 xtb: 6.6.1 (8d0f1dd)
C            1.39588566781456        0.28562783500580        1.06244991462423
C            2.56462211271615        0.12714830187475        0.07751346525941
C            3.89363859858865        0.34917774372293        0.81654220139053
C            2.42548581876002        1.16552627722315       -1.07372913840506
C            3.42088429088900        0.94583671436943       -2.17766955747024
O            3.82807584417901        1.89728811785563       -2.81409798116290
C            3.87791081895850       -0.40179915686920       -2.45456305610697
C            3.44350627806181       -1.47282236338224       -1.72735797893108
C            2.53707338089416       -1.30168727384787       -0.54677794407188
O            3.80101858008236       -2.76666509595542       -2.03091716893713
C            4.40655800968964       -3.01594084752746       -3.26933237914720
C            4.44012674991107       -4.34906402043948       -3.73050174035332
C            4.97733478485515       -4.66501513881240       -4.93484100996814
C            5.54604016222624       -3.66332114152321       -5.75299025736441
C            6.10507220191480       -3.96861686508786       -7.00587085098742
C            6.68600252291719       -2.99379097150857       -7.79066756378882
O            7.23275007091980       -3.27696254077424       -9.02781922416738
C            6.72988358779098       -1.66856634856613       -7.30149339781936
C            6.19768773364940       -1.34683431322431       -6.09551454702601
C            5.55975973950138       -2.32286092213829       -5.29056518696753
C            4.95104049528312       -2.00725468608754       -4.04777564371787
C            4.91523194999751       -0.59249403230730       -3.52691234225413
C            6.28521621062808       -0.16951567023880       -3.04759875546118
C            6.79584517731671       -0.73686471754859       -1.89682005877716
C            8.04547949789728       -0.37931994393712       -1.45996978502881
C            8.74227643337391        0.53650878803148       -2.20609584064795
C            8.16136739042587        1.03781783823587       -3.34631151569340
N            6.96284335540296        0.70291544600398       -3.78929207567869
H            1.39120356093670        1.28209235516139        1.50230159176122
H            1.46878098384613       -0.43985840434260        1.87161656112046
H            0.44002731916440        0.13597194689010        0.56206356469671
H            3.93274806262606        1.34504855952815        1.25574521793508
H            4.73678717730494        0.25221559244106        0.13414336428887
H            4.02209128833773       -0.37852329920503        1.61660315905162
H            2.55212594543009        2.17769705259333       -0.68071904641175
H            1.41721230031536        1.12027903279104       -1.49344653994261
H            2.80920664021458       -2.03894324281553        0.21359081740716
H            1.51600587050370       -1.54794884858460       -0.85139106176581
H            4.00896528511059       -5.10941695325499       -3.10389385242668
H            4.98144129642667       -5.68473496318136       -5.27868174836102
H            6.07983165808489       -4.98244044862835       -7.35890347058269
H            7.12897505714220       -4.23253361956095       -9.22898610818998
H            7.21277467082502       -0.92317571220127       -7.90808824651331
H            6.30465954538558       -0.34570710234782       -5.71894718417557
H            4.63683880369746        0.07825941329618       -4.35370952718947
H            6.20744652925428       -1.46161269188611       -1.36111126205708
H            8.46486992415193       -0.80463002086330       -0.56299948278372
H            9.72732905083146        0.85384220068442       -1.90574644685011
H            8.70272156576489        1.75700814093829       -3.94210088035024
