49
 energy: -9.318690248775 gnorm: 0.000680796351 xtb: 6.6.1 (8d0f1dd)
C            1.30151098333465        0.74270337921544        0.48240786070435
C            2.50520071092350        0.35443014948882       -0.39015899738562
C            3.80648368112634        0.60048452063570        0.39000161706246
C            2.50631998174283        1.20328757912116       -1.69553441633255
C            3.53680978730645        0.74481346673188       -2.68985533608847
O            4.02498373882938        1.54903423844136       -3.45885869974808
C            3.93226336282586       -0.65104753100493       -2.70182980814667
C            3.38483601191662       -1.56074176056732       -1.84330349109278
C            2.40264452123175       -1.14840896302706       -0.79079117515550
O            3.69585956460544       -2.90008271072445       -1.89007665911734
C            4.37364216628865       -3.38352124745822       -3.01665503812037
C            4.38573370648551       -4.77428228334144       -3.22900067583711
C            4.99117382012176       -5.31144987769620       -4.31505074904733
C            5.64546843962734       -4.50524258107419       -5.28068178607814
C            6.21075902434996       -5.17433464749528       -6.39380705696673
C            6.66945024155905       -4.65851242865519       -7.53746186586621
C            6.68356654159600       -3.41629560784931       -7.98772634133626
O            4.69363840136006        3.31901988362232       -5.74226262165407
C            6.47055574016913       -2.28280596882308       -5.82807151426720
C            5.70341272618376       -3.09902199935559       -5.04116197538041
C            5.02189061244767       -2.55383089967706       -3.91561934958406
C            5.04657115534788       -1.07191596134899       -3.62088036568955
C            6.39053931999602       -0.66720323110325       -3.05652459160835
C            6.75079354681180       -1.12345073342588       -1.80363882708064
C            7.97089186580948       -0.78119617067000       -1.27982265120475
C            8.79211016025775        0.00818062315709       -2.04380510805118
C            8.35694611858372        0.40545018589806       -3.28563360420139
N            7.18839428281845        0.08419301918876       -3.81174346062785
H            1.34874901689543        1.79404341471373        0.76344593207632
H            1.27738420945175        0.15034310809287        1.39629974356779
H            0.36475820465367        0.57901155677540       -0.04887298988149
H            3.89714546651204        1.64761171728777        0.67550207158514
H            4.67512345844550        0.34339041489631       -0.21448155901296
H            3.83771446368923       -0.00149260278786        1.29723929447935
H            2.68929826771044        2.25405392275131       -1.45608284116132
H            1.51965869978506        1.15957659775352       -2.16402394268708
H            2.54930268791336       -1.77559788655395        0.09290680184421
H            1.39215637366521       -1.36401554476703       -1.14941640718258
H            3.88319925467681       -5.39850428689006       -2.51166284545200
H            4.96642897416102       -6.37735670255487       -4.46391910052296
H            6.23011004173993       -6.25006511356920       -6.33312536573741
H            7.07908905335639       -3.39929053364734       -8.85235918331654
H            4.66021496665474        3.85037029809841       -6.55126733811697
H            6.64914192879265       -1.26407704726132       -5.64752138498788
H            4.90305383555013       -0.52301002196746       -4.56335738045057
H            6.06905042118917       -1.75197265482938       -1.25705611935640
H            8.27370964149272       -1.12224244438470       -0.30333529156361
H            9.76071440784387        0.30796982531163       -1.67876425964634
H            8.99817641283244        1.02354154140271       -3.89559114581959
