29
 energy: -5.030140382880 gnorm: 0.000421359461 xtb: 6.6.1 (8d0f1dd)
C            0.99654470789520        0.23299960200668        0.23917517903554
C            2.48892457781514        0.06790015809747       -0.06209044257838
C            2.72050763756021       -0.10991819881013       -1.56611021539310
C            3.06337327090878       -1.15229683500813        0.71023728732982
C            4.56574673609127       -1.18156703401837        0.70087611018220
O            5.12803985668226       -2.24022857181811        0.55725008477845
C            5.27553796600620        0.08544466879956        0.85884011971138
C            6.64336507084642        0.12880473347029        1.14617285854052
F            7.31123136612609       -1.02396616321106        1.33244974078866
C            7.28611532753447        1.35213287549612        1.28273947952699
C            8.76552033748534        1.45726322053480        1.58319824025899
F            9.34664502139443        2.21304991275258        0.63347700725244
F            8.92130205899152        2.03751926407235        2.78687837945471
F            9.33978222333447        0.24200874012380        1.59421330484587
C            6.56550254378077        2.53873182828877        1.15334350126969
F            7.16504598297915        3.73229169347266        1.30116013410695
C            5.21565143205761        2.50626964129663        0.87223880613649
F            4.52340796539876        3.65012939849406        0.72524370520274
C            4.55902186566052        1.28491100428153        0.71780570742049
N            3.22091829726187        1.28273897053531        0.38857938205546
H            0.43856196487517       -0.65741860575179       -0.04620056550873
H            0.58307311692372        1.08094394143252       -0.30412269049715
H            0.83868321532770        0.40849667849301        1.30206323914469
H            2.20306544135827       -0.99031416314559       -1.94386715284818
H            3.78324034928962       -0.22576984178969       -1.77483208563736
H            2.36568041077814        0.75974763976047       -2.11642633604079
H            2.69254856775562       -2.08239593905603        0.27098779178868
H            2.71858048215290       -1.13522698391225        1.74703431680258
H            2.75262220572821        2.16547836511263        0.19862511287047
