40
 energy: -8.812069913106 gnorm: 0.000392247264 xtb: 6.6.1 (8d0f1dd)
C            0.98897310336881        0.00285520341115       -0.18397385612645
C           -0.23289854768112        0.00690522865364       -0.14673510690022
C           -1.64313427126259        0.01010267498025       -0.10269008165833
C           -2.35726151628528       -1.18355011506070       -0.08141807079943
C           -3.73559137760133       -1.17956590015541       -0.03933184546596
C           -4.42334930536751        0.01666303938663       -0.01792109549570
C           -3.73001046996980        1.20969206678736       -0.03861435499906
C           -2.35163340378369        1.20716449492625       -0.08066901430156
C            2.39613028529072       -0.00332845650581       -0.22570714216947
C            3.01771664972353       -0.26808522734574       -1.45947896493669
C            3.58246528610394       -0.49440767747904       -2.51943578661162
C            4.27387017598337       -0.73746834132334       -3.72466475423372
C            4.83016235058230        0.31370289738306       -4.44613654864403
C            5.51040517280422        0.07825204643406       -5.62223328626416
C            5.64724415247473       -1.21078703125408       -6.09560983794660
C            5.10335398844874       -2.26494672191114       -5.39029058091303
C            4.42265509922132       -2.03104392012255       -4.21402825009800
C            3.08546640269344        0.20726600083858        0.91671818071643
C            4.54002295864732        0.24611497060002        1.06799065532777
C            5.38558898575408        0.69818398563679        0.05392222507122
C            6.75081682242749        0.73258283966890        0.23168286979945
C            7.30434002404044        0.32142774491056        1.42734728127495
C            6.48581057030328       -0.11784566235773        2.44830379300112
C            5.11973320493275       -0.15085821126845        2.27411628090174
H           -1.81645158727852       -2.11449247792501       -0.09897753649508
H           -4.27613189048109       -2.11191275760959       -0.02342527716938
H           -5.50070355695729        0.01917453457579        0.01475282182774
H           -4.26617462899077        2.14456012019837       -0.02219060935858
H           -1.80649169281172        2.13559524555207       -0.09763178829719
H            4.72188660098867        1.31756159714363       -4.07194151529019
H            5.93527613734071        0.90210221991151       -6.17217708464255
H            6.17849074405141       -1.39409370340740       -7.01534379413522
H            5.21138833372910       -3.27221122146159       -5.75833161228942
H            3.99883366579532       -2.85030430008450       -3.65850045160771
H            2.51091536537119        0.34314828230353        1.81745671662495
H            4.95970973215609        1.03834272038956       -0.87301068931058
H            7.38837366604481        1.08214256342344       -0.56403888047642
H            8.37319912536127        0.34601947358184        1.56410792340197
H            6.91692672996219       -0.43610150265603        3.38355026793808
H            4.48249691488524       -0.49541672261891        3.07059880077025
