58
 energy: -10.667102614702 gnorm: 0.000151733406 xtb: 6.6.1 (8d0f1dd)
C           -1.36580436085644        1.00561132964846       -1.95881601700486
C           -0.97513427001911        0.35214877434489       -0.62394712855191
C           -2.05562109907931        0.68285697770160        0.41142799745054
C           -0.84646394493745       -1.18128307887600       -0.83035846648713
C           -0.14499442948681       -1.89041017938945        0.33878137232046
N           -0.02308518022957       -3.34515980234855        0.10053578880453
C           -1.25554915339009       -4.10442287753139       -0.10790987084079
C           -1.04388046351586       -5.58711856991358       -0.09090719597352
C           -1.84639181277550       -6.38511022888295        0.71102169441170
C           -1.69995698474687       -7.75534716284254        0.74583459425026
C           -0.73430318826596       -8.38873469765231       -0.03377294316396
C           -0.55738395390176       -9.80976367748693       -0.02467610334750
C            0.38384748835549      -10.40339306036101       -0.79014208366278
C            1.24076512603001       -9.63385580841751       -1.64054624926818
C            2.22139747313871      -10.22345633977016       -2.43966172088685
C            3.03176538228382       -9.45230761929895       -3.24734899156889
C            2.89010254433051       -8.08034045685116       -3.28330993231491
C            1.92434130673912       -7.44198726214767       -2.50389092146734
C            1.75268174768553       -6.02162551933694       -2.50950751368066
C            0.81467201327982       -5.42937370894963       -1.73983058511042
C           -0.05533094638278       -6.18758590095307       -0.89086282668596
C            0.09616065648346       -7.59708168111399       -0.86222958604514
C            1.08940318494064       -8.22584582188249       -1.67150516218723
C            1.24414327042936       -1.27833327889751        0.57896278753442
C            1.20642347390951        0.25141719036461        0.83818649064958
C            2.63047376968478        0.81498939629995        0.70971697988403
C            0.68681340044372        0.56207580852306        2.24575455486260
N            0.35351712941219        0.91037187376172       -0.20589485495934
H           -2.32932002046530        0.63515136987635       -2.30824148775506
H           -0.62543253982196        0.79474905230804       -2.72981301668427
H           -1.43735309727983        2.08714041934984       -1.84880777336334
H           -3.04635349711701        0.43571375674361        0.03011018119608
H           -2.04087458967292        1.74553074870557        0.65081620156380
H           -1.91727300679145        0.12675184828035        1.33457972883365
H           -0.28408310006215       -1.37922794112315       -1.74717585265072
H           -1.84242592517107       -1.60417290713382       -0.99332020725384
H           -0.75488152682267       -1.75872592009145        1.24458975524198
H            0.51438946156936       -3.76867392850328        0.86180661126256
H           -1.68843739871243       -3.81494358818296       -1.06986064035887
H           -1.98530258109821       -3.81845735351420        0.65674196762567
H           -2.60303101457597       -5.91722096992812        1.31764876489492
H           -2.33612939065539       -8.35172033209049        1.37722326241606
H           -1.19420428253679      -10.40253576849097        0.60919038182891
H            0.50392580199499      -11.47289404089934       -0.77134583021386
H            2.33951564462424      -11.29325912196089       -2.41809944632880
H            3.78431154218916       -9.92675192877343       -3.85607660239379
H            3.52828246605554       -7.48648431649288       -3.91493760963678
H            2.39685396546102       -5.42775698036679       -3.13477068669991
H            0.72157370595798       -4.35877592503452       -1.73953033727735
H            1.86762293043337       -1.48033811919870       -0.29677727133846
H            1.73974857451828       -1.77919385587841        1.41693106593527
H            3.29742663561004        0.36389877386860        1.44410524223942
H            2.63102857952346        1.89304392938540        0.86674855445674
H            3.04077805038571        0.62008725402799       -0.28063383743215
H            1.40076350067490        0.23677847848842        3.00243339337785
H           -0.25361331813938        0.05815549163826        2.45157027057837
H            0.53103489216196        1.63350592701558        2.36630320171994
H            0.91665135818862        1.06648133023909       -1.04344209076293
