62
 energy: -10.493071252578 gnorm: 0.000861222732 xtb: 6.6.1 (8d0f1dd)
C            2.15391148153849       -2.53877180311444        1.35174287629930
C            2.56589850675770       -1.98207466013069       -0.01670092065701
C            1.31533103998256       -1.66417306646941       -0.84394096374617
C            3.43480290840761       -0.70973731112362        0.17805757897008
C            4.01561136816575       -0.20879934463134       -1.14929942079288
C            4.35393037998870       -1.30260925977620       -2.02553910778768
C            4.07125803007693       -2.59532906883290       -1.81303605224327
C            4.54576055801135       -3.63523592002578       -2.71153891381584
C            4.28899670750019       -4.96477389628713       -2.36065154754393
C            4.71406265914663       -6.00860012045520       -3.13888344289263
C            5.41813773721527       -5.76009936439631       -4.30931906516474
C            5.68090035536122       -4.47115449575448       -4.68623932502245
C            5.25396322867152       -3.38408054626296       -3.91193853598852
C            5.53014879148660       -2.08712719592802       -4.35863004459892
N            6.22860451625932       -1.75781564839070       -5.39866214931265
C            6.29595570939049       -0.42636862231668       -5.56942765431220
C            7.08653492726636        0.04826780989320       -6.61380110310030
C            7.18771887625483        1.21438345252151       -7.20003179484635
C            6.25621594507968        2.02587988759510       -6.90783157387499
C           10.44792795536976        4.00166684991353       -1.83291544562572
C            9.48056940846669        4.63278867003286       -1.29954116882021
C            8.14383933336596        4.41552484731627       -1.45482606690773
C            7.52104797944242        3.50117073196820       -2.19970022881750
C            8.05435097503297        2.59114796949272       -2.97942839356636
C            7.42442852455626        1.67710676314885       -3.72842710029685
N            6.13939173984261        1.43446364050485       -3.88232655513100
C            5.64537705957710        0.46794088288395       -4.67184904384842
O            8.26563844031351        1.34935609359675      -11.21250406657432
C            8.75052568851879        0.44377715449215      -10.34902559373573
C            9.15992642684935        1.15336882837775       -9.04669002896932
C            9.97956056685452       -0.23987760719663      -10.97331798175910
C            7.64397513135460       -0.62249978625982      -10.04672059881178
C            6.31176796161990       -0.01335885683733       -9.81896308321102
O            3.33331950435301       -3.01599024458014       -0.71072753595603
H            3.03507315446930       -2.80152149406322        1.93462578748117
H            1.55580139764788       -3.44009957315515        1.22888012968153
H            1.57076605578075       -1.81108724787101        1.91472273258544
H            0.70522528710379       -0.90326619770073       -0.35897566038381
H            0.71072277911647       -2.56019153563953       -0.97375633208905
H            1.58978220666025       -1.30537956019894       -1.83410725952960
H            4.24749334531546       -0.95088041427935        0.87142448634315
H            2.83757200954833        0.06803157188913        0.66790001022195
H            4.90985443607299        0.40448336968974       -0.97428494860084
H            3.29821538047014        0.45023486411964       -1.65434952441498
H            3.74653284901859       -5.15163922703089       -1.44972291970750
H            4.50476185594594       -7.02338020240115       -2.84249706815938
H            5.75488772468376       -6.58170115139629       -4.91995737946066
H            6.22185411063202       -4.26854046683339       -5.59463856793603
H            7.73320174089579        3.20009140568246      -11.80148610313270
H           11.39958365439744        6.87020780608046       -7.37693611428440
H            9.38355728914154        6.96287640686094        0.52351779475564
H            5.46674785436076        1.99854461368194       -3.34386289442670
H            8.28441175824219        1.59277600924768       -8.57003476314590
H            9.87195171639040        1.94986818085761       -9.25318052932643
H            9.60711483492408        0.45765049630680       -8.33844015543254
H            9.70852973453894       -0.71708413275872      -11.91335068653884
H           10.39388290619275       -0.99473278072736      -10.30606542030118
H           10.75175516541206        0.49733251526988      -11.18591706573829
H            7.93211717136979       -1.20923903812915       -9.16744066639702
H            7.60487870109999       -1.32760561831290      -10.88474633218554
H            5.48687953088129       -0.57865297050807      -10.21041171298951
H            6.26168493319475        1.00094760018547      -10.16408478501573
