42
 energy: -8.461681652446 gnorm: 0.000715371351 xtb: 6.6.1 (8d0f1dd)
C            0.80262561509480        0.50262985124447        0.06271298346935
C            2.32791483266980        0.42262160777490        0.20601350648059
C            2.71389273695830        0.49545543880858        1.68786529539124
C            2.98676049718440        1.57253684877132       -0.59675339714004
C            4.51293279582273        1.47037529805575       -0.58085786312750
C            5.00007492050327        0.06286466396006       -0.70181486353076
C            4.12061678043552       -0.99685930668575       -0.59311685077457
C            4.60964188376879       -2.34525155917325       -0.77416879430469
C            3.73808776767262       -3.43221075763374       -0.68424990992070
C            4.19267317177050       -4.71407655709768       -0.85410411788415
C            5.53660811545988       -4.94646382397590       -1.11889196921901
C            6.41005634169853       -3.89483201998251       -1.20928700497756
C            5.96928316206645       -2.57875293451165       -1.03921213447992
C            6.89257554036589       -1.47044080768278       -1.13479145300466
N            8.16413361807001       -1.73110419356474       -1.38492152082036
C            8.95998649319240       -0.65253973869234       -1.46918986480447
C           10.33365435179468       -0.82976080529638       -1.74093604676366
C           11.17876546067259        0.23434680863465       -1.83809066353651
C           10.69477870556790        1.53459967262887       -1.66770604640144
C            9.37568203865892        1.74535147122770       -1.40423942671248
C            8.46761473824480        0.66783327577772       -1.29708472767126
N            7.17807629849666        0.92395169162746       -1.04167856044537
C            6.39265692757017       -0.14635495159006       -0.96313657017108
O            2.76302032995443       -0.86458815893179       -0.32766821491457
H            0.41795864430609        1.44348819168725        0.45412099067741
H            0.32856854949320       -0.31543662821831        0.60205926621410
H            0.51617091262317        0.42067217708374       -0.98424742790569
H            2.40854587045302        1.44377878202396        2.12802899462040
H            3.78972339411914        0.38827607616513        1.81238925837211
H            2.23701096654960       -0.31122070512141        2.24175040452152
H            2.65039902448915        2.53609517456872       -0.19667732151786
H            2.62301084474506        1.52670012769192       -1.62856049441181
H            4.91570580880367        1.90541090865369        0.34121090873883
H            4.94775577749102        2.06209386041168       -1.39652732172427
H            2.69914988963808       -3.23918437911735       -0.47967060666386
H            3.50761865885727       -5.54282917889565       -0.78328126136045
H            5.89161348716710       -5.95504924570743       -1.25246475686077
H            7.45278501280677       -4.06424199635715       -1.41394997803468
H           10.69852248193970       -1.83341033044575       -1.87146272936850
H           12.22387999575963        0.07620542704263       -2.04750077152359
H           11.36965514890312        2.37099749731037       -1.74616908504196
H            8.99500240816132        2.74299322753110       -1.27248985346752
