56
 energy: -11.210149558484 gnorm: 0.000587476367 xtb: 6.6.1 (8d0f1dd)
C            1.20298927721830       -0.87566104886159       -1.73077257130678
C            2.21674220378710        0.11246200296148       -1.14939034866179
C            1.67661722766925        1.54386352763037       -1.19177709363284
C            2.61791461202210       -0.28905747700796        0.30259697902464
C            4.07904617598744       -0.53688770208140        0.21937588530963
C            4.48356590202987       -0.32711402632684       -1.08111180846578
C            5.86276648346304       -0.50083049364225       -1.43791960188829
C            6.30610439081146       -0.29762974313761       -2.74563572602276
C            7.62729361021470       -0.46873472151572       -3.06523423615008
C            8.53907356760805       -0.84697511267493       -2.08537869129128
C            8.12324996152817       -1.04969071499814       -0.79607452484285
C            6.78063534081229       -0.88235338056561       -0.43873148267285
C            6.34557443894415       -1.09642855121694        0.92853847524894
N            7.25300809279528       -1.44610843547672        1.83549011271755
C            6.78195972582578       -1.63502691572254        3.06461452209419
C            5.40423355001846       -1.47547196154601        3.38264619474397
N            4.49000569612957       -1.11676715356215        2.48302744166715
C            4.97150209447480       -0.92564628004840        1.25617357326224
C            4.99434405385299       -1.71262245675980        4.72367548777632
C            5.86828235929339       -2.08587630880265        5.72164030534605
C            7.26411978778154       -2.24425220428528        5.42775178411624
C            8.17726752829046       -2.61519159070387        6.41602877416867
C            9.50566503566314       -2.76119995853961        6.11425970451061
C            9.95503377269018       -2.54054874496193        4.81657519067373
C            9.07383158942839       -2.17690047050659        3.83284641687747
C            7.71118977054724       -2.01982175877114        4.11012340732948
O            5.25689607006907       -2.27474490520358        6.95283311402307
C            3.82479968004220       -2.02363059054211        6.79672654676418
C            3.05554567566516       -3.30465038716735        7.12737076392491
C            3.41286811138344       -0.87945791374855        7.72552661812100
C            3.62982859954401       -1.62762031683288        5.30160867743561
O            3.45137901789872        0.04636766887437       -1.93009157549878
H            0.27870462405722       -0.87617209706598       -1.15454638453271
H            1.61465712913361       -1.88359125490345       -1.72635016874120
H            0.96770957397110       -0.61527048482771       -2.76124741220350
H            0.76964340855804        1.64023995137291       -0.59638976938488
H            1.45036754604072        1.83316577808219       -2.21656366600935
H            2.42062393750731        2.23874618334517       -0.80560464537043
H            2.08954527606707       -1.18871454875749        0.63257016216574
H            2.39893170249734        0.51034470461222        1.01706104478614
H            5.58971400391359       -0.00493587591836       -3.49371080148903
H            7.96189955306607       -0.31064820379736       -4.07729559250294
H            9.57679488223419       -0.98100417041969       -2.34301128576704
H            8.82382121411676       -1.34165183811000       -0.03353140657456
H            7.81558966963310       -2.78314568997367        7.41578907503756
H           10.20469612666689       -3.04759715332732        6.88278416060158
H           11.00121297169965       -2.65609175052770        4.58549669309064
H            9.41528733660371       -2.00480912373251        2.82720035783078
H            3.24227015178542       -3.60353370883822        8.15730928210634
H            3.38127311304814       -4.11713052135323        6.47996146730063
H            1.98325157865289       -3.16505529951341        6.99626277550691
H            3.60105314303165       -1.14797047328277        8.76355350438911
H            2.35495535523856       -0.64459658178463        7.61519017542444
H            3.99202484249253        0.01488945912839        7.50190514020249
H            3.22807463579905       -0.61458705717672        5.20211376923926
H            2.94685482070359       -2.31169211748374        4.78862121018527
