33
 energy: -6.632564220502 gnorm: 0.000710639380 xtb: 6.6.1 (8d0f1dd)
C            1.73097735717349        0.25628158373073        0.77416430252198
C            2.70636569455433       -0.23896048423133       -0.28670001805012
C            2.27509621612185       -1.57407716395897       -0.88164282083548
N            2.87894141144119        0.77684861471768       -1.37038465591186
C            4.19873802666968        1.23226713478570       -1.40108169320442
C            4.80548511377234        2.16753222883691       -2.19670476166091
C            6.19627834087654        2.40100536141973       -2.08329392866780
N            6.75117081428312        3.31228240994623       -2.88353064631430
C            8.06876408453333        3.46932706609997       -2.72903134296507
C            8.74787269790783        4.41165705382740       -3.54013538224935
C           10.09153935578454        4.61011894480590       -3.42765022478557
Br          10.91276671208533        5.88037451305749       -4.54831604952220
C           10.83485662059909        3.87941109912826       -2.49643742128520
Br          12.69200712603384        4.13190048162717       -2.31853895876753
C           10.22042991328701        2.96322345333183       -1.69612959385144
C            8.82666035789819        2.72355056819006       -1.78040509939987
N            8.27645330079006        1.81153162642409       -0.97428810842884
C            6.96180859705976        1.64709807058301       -1.12660659978557
C            6.30630226524204        0.69747136543667       -0.30809591302263
C            4.95650779486791        0.50031927378318       -0.43003732086159
N            4.08690137127232       -0.32942419866898        0.28119636236936
H            0.73409402831316        0.38974857980926        0.35601146548769
H            2.06648840538035        1.21199875996735        1.17369723218746
H            1.66743524057913       -0.45178086887528        1.59903188459280
H            1.30216675416567       -1.48511922500415       -1.36257815398472
H            2.21082961840742       -2.34193403040530       -0.11217488279958
H            2.99480812893593       -1.89906268881428       -1.63118746286462
H            2.08285481725757        1.39371300593434       -1.54034942054170
H            4.23559926720557        2.71216067883877       -2.92494047910951
H            8.18380362119929        4.97839456658487       -4.26025317901302
H           10.80064211723204        2.40493745711437       -0.98229324351436
H            6.87146526790409        0.14569528940880        0.41838125559906
H            4.36982956116570       -1.24944052743096        0.62097485863893
