33
 energy: -6.563700461574 gnorm: 0.000986078402 xtb: 6.6.1 (8d0f1dd)
C            1.86409307285517       -0.20884975965246        0.70694211781266
C            2.84779824294504       -0.16231547263165       -0.45574826995169
C            2.42331584321871       -1.07510203255249       -1.59988503849022
N            3.02445523624939        1.23699465312771       -0.95158936866483
C            4.34211416187003        1.65608855358816       -0.75626122743017
C            4.95065949015720        2.85317185417218       -1.02595897868437
C            6.33909331042077        3.00862186811144       -0.80442093567579
N            6.89688481836933        4.18724468360722       -1.08608168136795
C            8.21317580245011        4.25423979568525       -0.86371439191275
C            8.89542676576866        5.45593717517405       -1.13264874198302
C           10.25589762376749        5.64533872664637       -0.94847345381516
F           10.85191963106200        6.94214681781076       -1.26146367106497
C           11.02981904637896        4.51735106891261       -0.44225918172616
F           12.47107812979032        4.58173525927709       -0.21230882464813
C           10.34690282278568        3.34091819881238       -0.17679752522631
C            8.96378132680067        3.16066250941833       -0.36707782119552
N            8.41406750231057        1.97716662162778       -0.07764115461977
C            7.10059300735341        1.89947266947150       -0.29722378239229
C            6.44378968657327        0.67901097878684       -0.01389863933387
C            5.09562925869003        0.55979159765018       -0.22419705041764
N            4.22434810666356       -0.50503070508218        0.01648614560947
H            0.86994989988942        0.10191450047923        0.38964590274188
H            2.19325488020551        0.45689928229250        1.50283956403742
H            1.79697815213867       -1.21620666048015        1.11479144406032
H            1.45334805772848       -0.77476184580489       -1.99300168386475
H            2.35602742894975       -2.11039249103710       -1.26893581468450
H            3.14812011917622       -1.02099171759227       -2.41046176236560
H            2.22678723818607        1.86309661238459       -0.83091851265977
H            4.38392018205828        3.67166620637351       -1.42661324672500
H            8.31352626940429        6.27740863594531       -1.50712238545943
H           10.90401925042303        2.50262986994218        0.19832328047164
H            7.00598047557020       -0.14466808226948        0.38252712592639
H            4.51019515978954       -1.47775937219460       -0.10273243630019
