37
 energy: -7.545661785488 gnorm: 0.000512952279 xtb: 6.6.1 (8d0f1dd)
C            1.02080970990526        0.53745774580255        0.47609239395192
C            2.37703965762305       -0.05431581393151        0.08044836115795
C            3.40370840543846        1.06194246583809       -0.14025451539618
N            2.21096953793181       -0.78795531511567       -1.20327408086177
C            2.36790126652408       -2.15000026473957       -1.37303753697290
C            2.11556161492955       -2.73736075423164       -2.61509450270059
C            2.26382258001741       -4.08939623219727       -2.79408329608531
C            2.66672069611557       -4.88491212586200       -1.73544716848441
C            2.92174054617716       -4.32417610599338       -0.50479226948234
C            2.78350528426422       -2.95250568990246       -0.29150778530511
C            3.05058751610572       -2.33117621696801        1.00104208771747
N            3.49962595338082       -3.10075523001471        2.05917649793345
C            3.77267935980837       -2.60445437968055        3.32697450321884
C            4.22463518190089       -3.42357738667166        4.36522510196597
C            4.47960247553595       -2.89476289766883        5.60478448968036
C            4.29091954875430       -1.53884270200245        5.83967080095218
C            3.84769534561514       -0.72067983156658        4.83023579590194
C            3.58399919096136       -1.23830395770267        3.56641014018713
C            3.10976494356384       -0.38314344278075        2.48413488325620
O            2.92620931208730        0.81773904495288        2.68710227150146
C            2.86240432547515       -0.97677539612248        1.19343755192187
H            0.65160094484008        1.21585496631484       -0.29137866455015
H            1.10207364324452        1.08775702954315        1.41299514660381
H            0.28806018403202       -0.25690257574884        0.61008178176434
H            3.07636143812060        1.74397515761738       -0.92335479694330
H            4.36244085140480        0.63856229526930       -0.43572909152041
H            3.55160656984970        1.63432156554358        0.77482348300198
H            1.87831376299794       -0.20030361826217       -1.96500218267940
H            1.80119517177327       -2.11104695336738       -3.43157262983846
H            2.06610412508059       -4.53224108072156       -3.75644706890992
H            2.78049328280801       -5.94731239543496       -1.87678024007385
H            3.22726306509702       -4.96435612967709        0.30154174607365
H            3.65856382136785       -4.09281016308252        1.92051025962622
H            4.36825344423487       -4.47322293468913        4.17807358198980
H            4.82697448534419       -3.53273039654671        6.40067379976247
H            4.49251957746287       -1.12896620887285        6.81558990871369
H            3.69562318022458        0.33223592867329        4.99489124291868
