66
 energy: -11.881754282983 gnorm: 0.000250924113 xtb: 6.6.1 (8d0f1dd)
C            0.79702956865783       -0.40990844150090       -1.80058060014765
C            0.73752416893527       -0.19574142777559       -0.28298919700106
C            1.67227009116355       -1.18606721949205        0.42073219277015
O            1.16801721936261        1.15002616883215       -0.01924086356618
B           -0.04455015589556        1.83665960313088        0.11965342923030
C           -0.06684942427068        3.40140668326024        0.19762549365835
C           -0.90609508188904        4.02543122592290        1.09340983087333
C           -0.93924139254586        5.41609332624457        1.17953239800750
C           -1.78910102196511        6.10787337779800        2.10055903027432
C           -1.80018757974407        7.45654626494576        2.16543245430784
C           -0.96495357558107        8.24742071188480        1.31338752809370
C           -0.95674004238605        9.64032420898588        1.35916843723745
C           -0.14253262715019       10.36185237411200        0.51501003009315
B           -0.15890600821350       11.92718651642394        0.57956493686059
O           -0.25413303267165       12.58816829324370        1.81029047593846
C           -0.45095037755761       13.95682604392599        1.41727055208731
C           -1.95413805552741       14.24956780400025        1.50162249523515
C            0.31516465805072       14.88400518789533        2.36760777699119
C            0.07904531028655       14.02440046188787       -0.09388844149883
C            1.57305721599026       14.36608932561353       -0.15341276874195
C           -0.71469308780217       15.00112008157368       -0.96896311531684
O           -0.07963903353936       12.68633387102622       -0.59423986979560
C            0.68545179858442        9.73755672055887       -0.39085148497682
C            0.72209365993240        8.34694289588332       -0.47318036882886
C            1.57234689840606        7.65552996036623       -1.39397666478067
C            1.59029369188572        6.30673105334436       -1.45233861470998
C            0.75731756864258        5.51607144540670       -0.59799878899230
C            0.75631809976579        4.12314569835609       -0.63749519851505
C           -0.09883749272088        6.17060053769035        0.32281008813546
C           -0.11410803079657        7.59265761272440        0.38777412163433
O           -1.23638008824809        1.10428245267406        0.17762602877203
C           -0.76872561193122       -0.25243187341002        0.26189232178278
C           -0.81988186677581       -0.66878372883629        1.73706584072345
C           -1.67698627177858       -1.16523347998218       -0.56973017013019
H            1.81115285486667       -0.24746969920816       -2.16164890793351
H            0.14911675266390        0.30301186905592       -2.30735539094843
H            0.49682968087672       -1.41987886994443       -2.07557736162031
H            2.67963217733040       -1.10344419243405        0.01624092347051
H            1.33255871438904       -2.21206766106018        0.28565254879908
H            1.73340786583869       -0.97326977055825        1.48592763252087
H           -1.53982714372022        3.42955840399667        1.72475402733159
H           -2.42433240364432        5.52805112154082        2.74749416923916
H           -2.44414607548597        7.96115123519828        2.86466838456591
H           -1.58546038176668       10.16197238895489        2.05764044731822
H           -2.31134422181313       14.08231128907262        2.51632321746395
H           -2.50576625352861       13.58018375266194        0.84398486836352
H           -2.17847885022934       15.27956718002903        1.22855201747787
H           -0.08197289265043       14.79748820979090        3.37755678708017
H            0.23160186517871       15.92407810137401        2.05519279539073
H            1.36802588556634       14.61318956510030        2.41013874865488
H            1.76763257159734       15.37802761539616        0.19865417495276
H            1.93399019712135       14.28823457680001       -1.17755280881750
H            2.14459641597121       13.66423421828490        0.45122325562247
H           -0.66220665005989       16.01508091188302       -0.57471183374054
H           -1.75896474302975       14.70309111584888       -1.03503081628090
H           -0.31555689300594       15.00694655803775       -1.98181757347831
H            1.30152112629394       10.33389505315641       -1.03902147827794
H            2.20390331101107        8.23559579407701       -2.04427916563624
H            2.23643669183616        5.80195843119564       -2.14943195961587
H            1.40268933801743        3.60137105389420       -1.31959028733657
H           -0.19094720730795       -0.01250891944359        2.33588621353874
H           -0.49150808467299       -1.69784329068814        1.87512205525369
H           -1.83749052669433       -0.58414238787122        2.11455135986035
H           -1.74781423456798       -0.81184449912772       -1.59627584263865
H           -2.68492839830734       -1.16742060848043       -0.15832644805186
H           -1.30732057875420       -2.18975228325451       -0.57491306823635
