42
 energy: -8.409020256703 gnorm: 0.000986878374 xtb: 6.6.1 (8d0f1dd)
C            1.16796734646752       -0.38980751280894       -0.13890870239446
C            2.68718064077617       -0.25662387055713        0.01578458396435
C            3.05049926067098       -0.11246020554212        1.49699943565122
O            3.30316844722940       -1.47766073787564       -0.50238488882990
C            4.68097872015023       -1.43392267371210       -0.67129523187506
C            5.40602899556380       -0.26361476059664       -0.78112934035643
C            6.83166330610920       -0.28004504388021       -0.91726137162217
N            7.46132663989364        0.88760202884407       -1.00273284128867
C            8.79247093660081        0.81144756390526       -1.12623949897003
C            9.54513232334550        2.00323221276143       -1.22302947334484
C           10.90070675488361        1.97471815603998       -1.34856270206548
C           11.57809167115422        0.75293102510655       -1.38373551026754
C           10.88638155959131       -0.41743419618015       -1.29321333839579
C            9.48129641267914       -0.42974227645682       -1.16274141977341
N            8.84064890220171       -1.60706675851130       -1.07874490895819
C            7.52697215857917       -1.52351058190986       -0.95863952229906
C            6.76450401873015       -2.74925258147584       -0.87279238855943
C            7.40037978341012       -3.99351090732681       -0.92327562762777
C            6.67900869028299       -5.15559802969296       -0.84141038482768
C            5.29711319863733       -5.10915120524774       -0.70622232275268
C            4.65266945568865       -3.90051377590042       -0.65339713388465
C            5.36732353906541       -2.70434095446076       -0.73610871607927
C            4.71577791137445        1.06422930803068       -0.78857512856617
C            3.19350804934982        0.96322918101290       -0.80305891984968
Br           2.39803042115516        2.60027040293302       -0.17779075966878
H            0.80635547200096       -1.25922697349578        0.40731308027648
H            0.90494913235225       -0.52010404073125       -1.18707561063495
H            0.65562556257356        0.49396532786029        0.23836709934996
H            2.69365566364673       -0.97356809057473        2.05927537522739
H            2.60797142177799        0.78645241288766        1.92339321007890
H            4.12965361369166       -0.05751426977543        1.62480272935422
H            9.01619883798839        2.93981745794315       -1.19511926507630
H           11.45554679545455        2.89565042147921       -1.42120721762471
H           12.65103496511092        0.73941110061717       -1.48302460811711
H           11.40082802712891       -1.36199029400335       -1.31964493132184
H            8.47109792751453       -4.01841090865642       -1.02761658965478
H            7.18300747380648       -6.10719306063603       -0.88184961934406
H            4.73266700860684       -6.02497921720260       -0.64323198836520
H            3.58236414260969       -3.85165797588458       -0.54895566232020
H            5.06710114322245        1.64364476792403       -1.65172686979877
H            5.02812393445811        1.63643406654173        0.09237729930198
H            2.84025973446553        0.84829546920844       -1.83433031868951
