43
 energy: -8.111612288611 gnorm: 0.000641193743 xtb: 6.6.1 (8d0f1dd)
C            0.66713820600802        1.57937506012907        0.05882218598856
C            2.03581153608552        1.33578633589558       -0.58363538759776
C            1.90435512286193        0.36890116951467       -1.76592342019471
C            3.16683803234767        0.89844637394137        0.45041604707041
C            3.27897393315682        2.12274063716425        1.41884057118076
C            3.06218280709155        3.34194391395926        0.47124818186881
C            2.85062972386292        2.67533940729476       -0.93829250185988
C            2.24886095946942        3.57292262572375       -2.00944729772674
C            4.21651458933239        2.06434278328151       -1.30048321866653
N            5.05038231161957        2.44549450882045       -2.22263531839318
C            6.14822644993363        1.65249180513102       -2.26239192573436
C            7.15284423120158        1.94916656923182       -3.20296271578196
C            8.30112710887758        1.19704526979219       -3.31840444880775
C            9.33332695497109        1.51905578264271       -4.29797293291933
C            9.36350697842451        2.60231071850790       -5.12887509501274
C           10.50355546128044        2.64430180652253       -5.97700177415787
C           11.34434364328334        1.60122673960309       -5.80047716219964
S           10.75207945099616        0.53699662942035       -4.57745887194192
C            8.46221786341276        0.09170241867806       -2.45963179639248
C            7.51674607408556       -0.22758744546912       -1.53542710575267
C            6.33399241914078        0.53184950920362       -1.39768228554933
N            5.43478734694251        0.16625947548088       -0.45611763750991
C            4.40295769988592        0.96006303905510       -0.44138708546265
H            0.24845165689953        0.64532702688644        0.43237135647130
H           -0.03134188888189        1.99213807058997       -0.66826247692417
H            0.72328475154482        2.27374967724961        0.89444291616894
H            1.52442896873384       -0.59624377922128       -1.43255450600786
H            2.86448240469266        0.19868782675706       -2.25135589646993
H            1.21692173139136        0.76165176614305       -2.51402556641852
H            3.00019161658441       -0.08015791737830        0.92219020321972
H            4.26766811799046        2.14602626971150        1.88932628836117
H            2.53571718278862        2.07473980174209        2.22180165564658
H            3.93271166703675        4.00474655321548        0.44606113143680
H            2.19683859039649        3.94972531416846        0.75208423489950
H            1.26639132935768        3.93587272343476       -1.70999143990796
H            2.14377406529459        3.03362065442589       -2.94978468397493
H            2.89155422364051        4.43408525482216       -2.18838753006967
H            6.99737267535025        2.79367996825566       -3.84665044266109
H            8.59937674903703        3.36338028688388       -5.14159894976971
H           10.67666816494009        3.43434541763135       -6.69367719725218
H           12.25972605146822        1.43851366379076       -6.33771419832640
H            9.35579943539382       -0.50057704714422       -2.54731551436033
H            7.65278360206759       -1.07246666548991       -0.88339838851285
