109
 energy: -23.769071061809 gnorm: 0.000770560516 xtb: 6.6.1 (8d0f1dd)
C            0.93743852294065       -0.14373763436741        0.06401451980465
C            2.44848090255466        0.15952947450840        0.04057337306244
C            2.91299350748619        0.42825840777950       -1.40452174828155
C            2.70453150725896        1.41971288352437        0.87688850500549
C            2.09572939189878        2.61030955771495        0.52225968969793
C            2.29645120314119        3.78341503989624        1.23879575699241
N            1.64741940481455        5.00245828155867        0.84117871448735
C            2.27852176587834        6.24177150148514        0.61470114158751
C            3.62173299586155        6.60921927596768        0.68792457679062
C            3.96727583313842        7.90666109175707        0.40052598387164
C            2.99845927772677        8.84723789062970        0.03785808045112
C            1.67155414382156        8.50052116012941       -0.04455697037221
C            1.30422388689164        7.18477701315943        0.24428863308202
C            0.02990963274252        6.50700886066733        0.24371603601926
C           -1.26778195910753        6.94139950465160       -0.03283890185538
C           -2.29955516719369        6.03965700966202        0.06706818260644
C           -2.06270491621967        4.71300614674879        0.44011285319680
C           -0.79202607685310        4.27011557066763        0.71295856554145
C            0.26760306838354        5.17094271062966        0.61077195101086
C            3.13349225450884        3.75681831400073        2.34408305184628
C            3.74519414790289        2.58671205049062        2.71317975282721
C            3.54559330035550        1.40728456327981        1.99659190051991
N            4.20129103928968        0.21761305546403        2.41517793023553
C            5.08537109924071        0.26133825555234        3.55889310138092
C            4.59111708623448        0.07101984104221        4.84880860819363
C            5.42173007359411        0.15691660774668        5.93839383469803
C            6.78226257375407        0.43536937597211        5.78028801210073
C            7.71034593659913        0.56425982140213        6.91250722371922
C            7.35053437169553        0.19203631612901        8.19089532019276
C            8.25858953308197        0.34615088760025        9.21692853282483
C            7.92180523584814       -0.02997852546602       10.60105401506040
C            8.72049766235653        0.43538665344231       11.64267301214407
C            8.44161617952963        0.11101043196629       12.95177873896030
C            7.35830757573798       -0.69141374837311       13.24772072717576
C            6.55918354391146       -1.17077226629088       12.22909293329548
C            6.83605141950247       -0.84692279147443       10.91880256010320
N            9.46427053557152        0.85958022712427        8.98168122560623
C            9.73495282496457        1.18494381459869        7.71860229952868
C           11.06688333900711        1.74608830113226        7.45111799773631
C           11.44206082183071        2.09466885817013        6.15705307882994
C           12.68862974756716        2.62270807270522        5.90455038615308
C           13.58158120681340        2.81214208577748        6.94113592501250
C           13.22405158682960        2.47136402249548        8.23115277595705
C           11.97773993370833        1.94271103314161        8.48464663105283
N            8.92347351036211        1.05799214521309        6.67076877561734
C            7.26924233900328        0.62275166933178        4.48666798652466
C            6.44208804984535        0.53627892622413        3.39574219444213
C            4.02067902505234       -1.00076926534131        1.70628813412930
C            4.67685144872971       -2.15111687015113        2.14248057437945
C            4.53982757180046       -3.34374141274112        1.47952409227425
C            3.73585210815225       -3.42285005683850        0.35216159685779
N            3.59559885178692       -4.66037331676475       -0.36516811321791
C            3.23864836461546       -5.90655467600106        0.18736927813698
C            2.92602474738828       -6.26923192806954        1.49706142080597
C            2.59868068982612       -7.57675708637132        1.75934572647916
C            2.57375320059309       -8.53239819022216        0.73896481066350
C            2.87196740087316       -8.19056151378386       -0.55785678770047
C            3.20543334659233       -6.86457909133633       -0.84085826760354
C            3.55259102818519       -6.18900682843823       -2.06808317812501
C            3.68033118204143       -6.63477558642942       -3.38495880911704
C            4.04550748279416       -5.73144248449643       -4.35369366228993
C            4.28867072351987       -4.39212829428311       -4.03402284933519
C            4.16361958025767       -3.93785473326957       -2.74436635353376
C            3.78583407449350       -4.83978799378573       -1.74994128954718
C            3.07619986979558       -2.27974386126287       -0.08106559265368
C            3.20088045293226       -1.06708852698548        0.57259855216157
H            0.35880393695132        0.68991603362490       -0.33099906445728
H            0.60438502826949       -0.33036975378587        1.08440057886949
H            0.69937116833660       -1.02259493551744       -0.53311585527682
H            2.39071828200141        1.27975387932756       -1.83786903061004
H            2.73090588612307       -0.43178257572075       -2.04713029741248
H            3.98090358154916        0.64294172570062       -1.42517852371868
H            1.45365260359729        2.64866651317450       -0.33815951573308
H            4.36145759610051        5.87770908438747        0.95917315855110
H            5.00142382636229        8.20522681799860        0.45365486819801
H            3.29847486336921        9.85855775064400       -0.18203837850337
H            0.92079365728158        9.21755125846784       -0.32599462325550
H           -1.44218046058802        7.96480042057482       -0.31475119307683
H           -3.30740639880105        6.35940877873555       -0.14083121913535
H           -2.89171111567653        4.02863516860732        0.51604356974675
H           -0.60249167477663        3.25420859240310        1.00981132225495
H            3.28344243618886        4.66007401601022        2.90930035794763
H            4.39207060321104        2.56959774000559        3.57205738255060
H            3.54196953288801       -0.13359668591340        4.97279171378802
H            5.01202256580834        0.02872881807008        6.92393480503968
H            6.37475351391828       -0.20602623817402        8.38703154740014
H            9.56447206411063        1.05858151045785       11.40330991644869
H            9.06946850455600        0.48348666287555       13.74466273092949
H            7.13865226200258       -0.94615882274488       14.27171334077928
H            5.71736525133301       -1.80321200443811       12.45970936154951
H            6.21867377129394       -1.24548310669173       10.13376327450147
H           10.73832811388573        1.94424313654751        5.35710654253541
H           12.96684222246365        2.88821855086298        4.89770154822582
H           14.55693411558249        3.22581522514652        6.74330430771699
H           13.92043357651107        2.61967694862700        9.04028864934464
H           11.68906890728751        1.67396748907856        9.48572426863170
H            8.31449553605581        0.84423310156910        4.35996517170746
H            6.82353929461226        0.68872814492094        2.40127721805542
H            5.30447742049982       -2.09177752293768        3.01375962957041
H            5.06236618586499       -4.22336282952928        1.81270307215008
H            2.93902453857151       -5.52655849591889        2.27438812149049
H            2.35597901595190       -7.87186399049027        2.76701736538102
H            2.31461756440164       -9.55158173251018        0.97404879536394
H            2.85148552592763       -8.91907480304100       -1.34899498005893
H            3.49625169438208       -7.66780138856882       -3.62183402614506
H            4.15063435750147       -6.05982028287057       -5.37459688326780
H            4.58047070107171       -3.70678272062078       -4.81288825666559
H            4.35848272202074       -2.91183240100409       -2.48881300430445
H            2.44729221875380       -2.35894710596041       -0.94840452430419
