51
 energy: -10.952737701997 gnorm: 0.000686861564 xtb: 6.6.1 (8d0f1dd)
C            1.44378826123361       -0.31152570622270       -0.74624746294596
C            2.82359317111773       -0.43051175257717       -0.08585308953457
C            3.90514031810883       -0.76117622668308       -1.12256024373794
C            2.80316317179251       -1.47876333094670        1.03049619806923
C            2.54603697039323       -2.83015129852614        0.97361704865978
C            2.58628797803439       -3.58819678041233        2.14316659384054
C            2.33290634777698       -4.96459102880840        2.09792509123586
N            2.12228998350883       -6.10729346077365        2.05762067198999
C            2.88441722893095       -2.96438747692077        3.35747306097853
C            3.14207785546599       -1.61362671071585        3.42279872944635
C            3.10235829133229       -0.86435815620603        2.25213472913675
C            3.32961719392310        0.56168891537947        2.03392958918418
C            3.65156184546373        1.57202030321606        2.93535531095466
C            3.81119078915426        2.85430219583775        2.46835949666454
C            3.65785873178699        3.16013690277224        1.10798123090233
N            3.81789223709251        4.51236102425698        0.63771005849033
C            2.72673187982332        5.20436961996355        0.03923535882995
C            1.46469821764125        4.63611506101087       -0.03409004415792
C            0.40841147792625        5.31773255600489       -0.60535936961330
C            0.59969920819481        6.58523920694677       -1.10984111130524
C            1.84495042127000        7.17392662319402       -1.03607031010523
C            2.91959696729292        6.50687749173242       -0.46139893845652
O            4.14991575336221        7.15410582811896       -0.39003253663466
C            5.20906860216185        6.48105837682801        0.21239150133278
C            6.44284012854066        7.11431506233366        0.29563414617650
C            7.52905876738499        6.48281281059786        0.86458506890837
C            7.39966616710456        5.20254381301580        1.35648933923163
C            6.18145863940406        4.55630076461875        1.28472807754657
C            5.07399594162974        5.17709568118772        0.72901368662671
C            3.33501418213601        2.13614529014499        0.21044681915435
C            3.17323922210651        0.85283965124350        0.67264145984729
H            1.16402999954461       -1.24443892543812       -1.23393278386227
H            1.43805230452463        0.47876019203613       -1.49585335879465
H            0.68299387072391       -0.07768156246386       -0.00251034731221
H            3.69186137582656       -1.70685106266045       -1.61914480311513
H            4.88048400480566       -0.84330516993787       -0.64440735517184
H            3.96576302884376        0.01611435532838       -1.88320134026144
H            2.31764204603716       -3.30213915181146        0.03538848337074
H            2.91014257126835       -3.56395114705894        4.25132923104110
H            3.37072423014942       -1.13513205732040        4.35850871811292
H            3.76653260231796        1.34168645007866        3.97966558947978
H            4.04453490944908        3.65403100536788        3.14922338639581
H            1.31055560232575        3.65231547976457        0.37133943680431
H           -0.56548473753160        4.85891723903102       -0.65346469070804
H           -0.22304581145159        7.11901991850709       -1.55634755538205
H            2.00705009141215        8.16664232414566       -1.41690535793720
H            6.53056875467607        8.11038528116914       -0.10075843099127
H            8.47867693135454        6.98912725676244        0.91999594022769
H            8.24818358239996        4.70428222005166        1.79574117063601
H            6.08662371230831        3.55153273636165        1.65506819836853
H            3.22390497992341        2.35763936848306       -0.83473429162345
