77
 energy: -16.594155500340 gnorm: 0.000692091758 xtb: 6.6.1 (8d0f1dd)
C           -0.76860487093386       -2.49471603407560       -0.84244661677932
C           -0.14125261378002       -1.64218824663173        0.27367256156400
C            0.13039533347353       -2.51247769112908        1.51918185011070
C           -1.12558146955705       -0.52952285919612        0.64849327701657
C           -2.30189303928481       -0.82818995847285        1.31356818807719
C           -3.20144334587236        0.15847259709032        1.67177591435474
C           -2.95047068557602        1.46836196452752        1.34575094559054
C           -1.80407475193098        1.81094864675050        0.64452334749226
C           -1.56280602021454        3.21353333593187        0.26617953679060
N           -0.96458857031624        3.43545072547097       -0.89048657424830
C           -0.74484939880970        4.70562449710984       -1.17763234787942
C           -0.05634835547790        4.98065824092380       -2.44391698621633
C            0.19728080255825        6.28335686504697       -2.85915663926465
C            0.84547949831838        6.52240791433217       -4.05033400565784
C            1.24841626855445        5.46581995305988       -4.84388594439840
C            1.00907200601858        4.16697692263824       -4.43977281290363
C            0.36557089219657        3.92603842300375       -3.24731856039722
N           -1.08191361220017        5.72846836608861       -0.41172571214187
C           -1.68976233836516        5.39243695435188        0.71522968911585
C           -2.06278687789890        6.48181446728595        1.62711178841804
C           -1.76982754573899        7.80439974906597        1.30963041388419
C           -2.10809330852295        8.82397323822595        2.17093316689705
C           -2.74359092002511        8.53947997982144        3.36369011675719
C           -3.04013790897364        7.23122395275837        3.69272432854041
C           -2.70238050893628        6.21052617639661        2.83248879933663
N           -1.96741339554564        4.15720866800342        1.10107888273032
C           -0.86653465952292        0.80506884912084        0.30703665237385
O            0.30235641669085        1.19883489756788       -0.32458355044780
C            1.34214759538912        0.29311075801625       -0.46825650098340
C            2.59361458443120        0.80278389977779       -0.88125369732652
N            2.77740513418199        2.21515959933833       -1.06012679341379
C            2.39099048084636        3.23490209854087       -0.16570414568484
C            1.70813427917434        3.18270052552562        1.04925890615124
C            1.42593729715974        4.35418628681053        1.70605069350119
C            1.82140711206316        5.58676905621150        1.18046499935958
C            2.50639290711846        5.65916344498457       -0.00772874157101
C            2.79779577497315        4.47485663973585       -0.68649862087847
C            3.45786453134286        4.21600336202494       -1.94161821259537
C            4.03574838430403        5.06266783995043       -2.88835985370489
C            4.56529994833901        4.51071222662581       -4.02925889774465
C            4.52375057249287        3.13036879552362       -4.24526760983082
C            3.95893060936695        2.28556356311115       -3.32209275211386
C            3.42499671005497        2.82741845386547       -2.15308952134056
C            3.64947854308437       -0.06776004489961       -1.08111491078093
C            3.48662573159316       -1.41934471334638       -0.88360739479799
C            2.26902145397860       -1.91414267931795       -0.46186504463691
C            1.19004114295484       -1.07607131471735       -0.22908949031779
H           -1.71569531851564       -2.92623264932337       -0.52115419180503
H           -0.10846555659655       -3.31063439360408       -1.13349841059838
H           -0.95857332382501       -1.88338998381995       -1.72404357891203
H           -0.78303988190674       -2.96483519075929        1.90072699779922
H            0.56590342431330       -1.90919109549439        2.31490589084111
H            0.82065119291267       -3.32419045710951        1.29698847800991
H           -2.52639423420517       -1.85222067214055        1.55479240432609
H           -4.10372383096805       -0.10086147040828        2.20084884476404
H           -3.64540548247623        2.24547096018715        1.61344523769948
H           -0.12163151594931        7.09772624316683       -2.23248318843978
H            1.03859796874101        7.53537205260009       -4.36349604622264
H            1.75788081646071        5.65430465655839       -5.77458560724605
H            1.33728129410891        3.34172398633890       -5.05015025431657
H            0.20109909486495        2.92035251164854       -2.89959615275249
H           -1.27279899422611        8.01346816105506        0.37851870006777
H           -1.87636356702342        9.84469481071680        1.91407700463168
H           -3.00825597730284        9.33782274512372        4.03750317215144
H           -3.53621957365871        7.00914039474442        4.62335576117606
H           -2.92654509194510        5.18726182425020        3.07860596546523
H            1.36777539118850        2.23360008362480        1.42233612501333
H            0.86402873125248        4.32610866552160        2.62519781396425
H            1.56705998466828        6.49286744275081        1.70517123121123
H            2.80269525859349        6.60410676518011       -0.42756580978910
H            4.04717555168436        6.12513670493681       -2.72100014665280
H            5.01001471290529        5.15132001478499       -4.77275492503286
H            4.93755783667680        2.72416122546699       -5.15359566252887
H            3.90707199644045        1.22532928679994       -3.49212872970055
H            4.60391491341651        0.32979081301104       -1.37868124669776
H            4.31280106324210       -2.09101681529540       -1.04981338772094
H            2.15528330392613       -2.97403501331927       -0.31665840871690
