59
 energy: -12.492568576962 gnorm: 0.000399704736 xtb: 6.6.1 (8d0f1dd)
C            3.07030781203507       -0.61713629669627       -1.39383396915418
C            3.94226201857003       -0.01486903138603       -0.28371107049311
C            5.30297419513490        0.43245640276259       -0.83459910641667
C            3.22107246508409        1.15400570428306        0.39720989257468
C            2.78714154510362        2.35609551345919       -0.12443869589694
C            2.14832017524009        3.25789510599490        0.70796347045745
C            1.94435212209379        2.96383184343643        2.04703066619760
C            2.37482962903466        1.76491220026165        2.57787041283893
C            3.01654449257000        0.85671278588634        1.74705875983572
C            3.56510707659051       -0.47096778619860        2.04321349817860
C            3.58382077305808       -1.16704316630849        3.23605469916693
C            4.16750969234213       -2.43213412317325        3.23692051120709
C            4.73228559515220       -2.96974216253390        2.06055520664501
C            4.70991684095684       -2.25728654769790        0.85668555438457
C            4.12375313953762       -1.01461936060214        0.86249911480697
C            5.26245604287269       -4.26777106656565        2.39742372559790
C            5.90807185668107       -5.24316239504785        1.63534843271759
C            6.28375603833729       -6.41509091450197        2.24648338987146
C            6.02305928003194       -6.63408439300880        3.60228161391426
C            5.38898523490814       -5.68353780782416        4.36448552187114
C            5.00878494342864       -4.48418581402375        3.76302735190502
N            4.33526114713566       -3.36045343973280        4.28659912272758
C            3.87910171905571       -3.19484584698546        5.63776239975420
C            2.58155344429424       -2.76770690161973        5.89981624306290
C            2.14259743102607       -2.60906210233330        7.19233679841473
C            2.98607734310720       -2.87131081453031        8.27271714398250
C            2.51260052056420       -2.70328995588236        9.66497764316575
C            3.34490710640246       -2.16258972750634       10.64480792537837
C            2.90190049773083       -2.00713149617817       11.94038550282739
C            1.62065816144706       -2.38836015960231       12.28516708287714
C            0.78210074089627       -2.92592311848331       11.32937306852197
C            1.22166528487185       -3.08209072963280       10.03274835329778
C            4.28730178306855       -3.29814618122571        8.00361969316301
C            4.72471427365076       -3.45719884713956        6.71044214386364
H            2.88821726956458        0.11034242931652       -2.18418311303258
H            2.10639288711235       -0.93144859643067       -0.99453938332557
H            3.55160688756092       -1.48796528367757       -1.83784091167869
H            5.18018936813250        1.19232403541817       -1.60568898431214
H            5.84242319235683       -0.40834643121288       -1.26953051235693
H            5.91796580042846        0.85351388681463       -0.03972073616403
H            2.94753231586754        2.57800348228021       -1.16513181414370
H            1.80516433173829        4.19885003180487        0.30991564210124
H            1.44415349885396        3.67817102135603        2.68046312304359
H            2.22086223350889        1.52712376319191        3.61579343820046
H            3.17156322994646       -0.74636291164781        4.13307791103736
H            5.13640912709527       -2.66957009848547       -0.03865693981820
H            6.09902798648883       -5.06833596871546        0.59116369684457
H            6.78340491623407       -7.17825202404254        1.67259931458992
H            6.32258605414326       -7.56513752938281        4.05503102072967
H            5.17284431165763       -5.85234126243753        5.40412255479446
H            1.92082574641340       -2.57794771909095        5.07204148948863
H            1.13976288905342       -2.26733022355359        7.38205768383306
H            4.33952884045125       -1.85223013070406       10.37446509638605
H            3.55628298561368       -1.58534393749505       12.68589396267935
H            1.27560248467171       -2.26674341470018       13.29912538043147
H           -0.21763594178826       -3.22605285140071       11.59842342521450
H            0.57161701099191       -3.51465060536427        9.29179159175024
H            4.94733476675900       -3.51525735272024        8.82558307014725
H            5.73375738511133       -3.77266167879068        6.51021189229868
