55
 energy: -11.701727884068 gnorm: 0.000547881459 xtb: 6.6.1 (8d0f1dd)
C            0.08701713901286       -1.52193044469811       -0.90291981694217
C            1.43611277413785       -1.09844325447629       -0.30654678668628
C            1.25543589389426        0.03381895530210        0.71370523241560
C            2.41209767415517       -0.67985889899374       -1.41193321430537
C            2.32374163260784        0.34258065377345       -2.33508944937714
C            3.35276197916453        0.51883593496782       -3.24291875433935
C            4.45909792566215       -0.31603909537366       -3.22963638461853
C            4.55735417801600       -1.33992922945969       -2.30952732588763
C            3.52755601923967       -1.52119446164294       -1.39655500214854
C            3.37482486187948       -2.51493128029612       -0.32836251067944
C            4.22933353416815       -3.52986558361757        0.05572754650289
C            3.83478757854468       -4.33923197111131        1.11917750962159
C            2.61037734455653       -4.11454630240424        1.78429627840770
C            1.75208761321245       -3.08243025876171        1.39043466660058
C            2.14462080120158       -2.29525912291916        0.33505364266195
C            2.51012543111936       -5.09553531153988        2.83640921703288
C            1.52567424684295       -5.34680481365895        3.79380429811657
C            1.71234129310163       -6.38501450143664        4.67433454677878
C            2.86082733939103       -7.17972410797563        4.61548936175116
C            3.83844686996124       -6.94319391593421        3.68035359026118
C            3.67033034594279       -5.88737105415776        2.78480696292331
N            4.49097995761006       -5.42686723932259        1.73410035496883
C            5.77646687895268       -5.95184549527032        1.36838389289923
C            6.75154571277742       -6.19503306686714        2.35812750561348
C            7.97392055684109       -6.69163311602995        2.03101847846663
C            8.30088922755396       -6.97563889758035        0.68373769071413
C            9.55900641018914       -7.49375875789190        0.30708505866662
C            9.83955971198003       -7.75384958595102       -1.00159318111914
C            8.88293753474284       -7.51034732274317       -1.99522437962474
C            7.65847979333285       -7.01097112630532       -1.66750681497440
C            7.33258265022654       -6.73046011003250       -0.32024160036166
C            6.07494622068091       -6.21773038599822        0.05470514988798
H           -0.39210670873053       -0.68733813431609       -1.41374228642075
H           -0.58801868822991       -1.87680179349488       -0.12479319140064
H            0.22337715323819       -2.32679369487489       -1.62457972373980
H            0.80425278209025        0.90947951032085        0.24825014739553
H            2.21787546136742        0.32992320549723        1.13000086885493
H            0.61492255319203       -0.28200397499111        1.53652474439758
H            1.46249313554815        0.98772856154111       -2.33959434599607
H            3.29260902315096        1.31403533873866       -3.96792525686881
H            5.25092926672848       -0.16402539793384       -3.94490714293705
H            5.41214659355367       -1.99298167186752       -2.29094360587447
H            5.16902793269163       -3.68354553687715       -0.43908365286522
H            0.82160765580295       -2.91177543139045        1.89893773077780
H            0.64244904908007       -4.73356517571543        3.82825491144403
H            0.96148670162897       -6.59328844503074        5.41881029929484
H            2.97873281857322       -7.99209302833186        5.31388674159072
H            4.71734942255388       -7.55965662985231        3.62089841879512
H            6.51278377737413       -5.96222662162766        3.38113364649987
H            8.71068265985842       -6.87181278356544        2.79474179830967
H           10.29464503783739       -7.68138946567734        1.07026714799538
H           10.80342669839158       -8.15011240643953       -1.27669857721629
H            9.12053266184928       -7.72092879286682       -3.02524763321343
H            6.92353149420062       -6.82322890577330       -2.43125832983914
H            5.32791638754560       -6.04756555706188       -0.69832847221573
