36
 energy: -8.040143612551 gnorm: 0.000963791801 xtb: 6.6.1 (8d0f1dd)
C           -1.84655086872568        0.40823580731306       -0.24304284570248
C           -1.41355554741893        1.55014847667087       -0.23455009906337
C           -0.74118003315177        2.79074642873759       -0.18313376377257
C           -1.43518110064611        3.99096533283079       -0.28532285481021
C           -0.77097206579857        5.19701508635650       -0.22876190004983
C            0.60022063007374        5.22432070885601       -0.06868853996374
C            1.30641447115154        4.04573784091287        0.03496318477040
C            0.65528851596562        2.81835971940313       -0.01997045258406
C            1.36866030142026        1.60410690182802        0.08663367232953
C            1.83280062614246        0.47701385044375        0.16291466075360
C            2.22412662410068       -0.87800862885284        0.23084726731234
C            1.26586259212140       -1.88148824907418        0.13207924047394
C            1.62546828779042       -3.21035198861874        0.19438463293551
C            2.95040633599670       -3.55878220070282        0.35854127363414
C            3.91391495817136       -2.57537865267084        0.45875171777307
C            3.55494296840170       -1.24506148909886        0.39564084414360
C           -2.20804452980283       -0.95635896984507       -0.22463581922350
C           -2.11381847479048       -1.73387869482820       -1.37425286647372
C           -2.41887704583873       -3.07854016336220       -1.34162168852981
C           -2.82125868268546       -3.66787724837422       -0.16035012820584
C           -2.91973364676788       -2.90997987283093        0.98867359491089
C           -2.61322560105666       -1.56571183003739        0.95813126606145
H           -2.50468073608543        3.96460060072630       -0.40839155061491
H           -1.32247851577273        6.11948606876373       -0.30905409002640
H            1.11843693536357        6.16855275546292       -0.02372295123744
H            2.37563752456438        4.06225712032931        0.16194164571802
H            0.23413403943458       -1.60439165244042        0.00352151553111
H            0.87046135470276       -3.97545968988453        0.11616793371521
H            3.23251332187760       -4.59790467749796        0.40789760914698
H            4.94886732799340       -2.84746967397620        0.58678869627256
H            4.30314047586160       -0.47446780117860        0.47345347028245
H           -1.78873996161947       -1.27167488245894       -2.29098666704713
H           -2.33881029217000       -3.67038769131909       -2.23884467198604
H           -3.05900446651548       -4.71898266539265       -0.13522427446346
H           -3.23226298291113       -3.36953208937376        1.91240410426957
H           -2.67737273982613       -0.97224788617132        1.85434883374241
