54
 energy: -11.567866508637 gnorm: 0.000497948724 xtb: 6.6.1 (8d0f1dd)
C            2.96792954205155        0.29495009606657       -1.53048540877597
C            3.39927110150713       -0.79999942239596       -0.54552903134131
C            4.66899738310051       -1.51002332512510       -1.03368693784562
C            3.60829340066968       -0.21508783900677        0.85631446776585
C            4.50594846860254        0.73543241474553        1.29885463097827
C            4.49829396213040        1.09613093452009        2.63451866168838
C            3.60452288171383        0.51475733931390        3.52019518663368
C            2.70277363409126       -0.43589403284134        3.08743834413008
C            2.70634095919395       -0.80051062613827        1.74838306168732
C            1.87667022993842       -1.77388299262452        1.03324031864252
C            0.86838016840034       -2.58580849376255        1.51103307058021
C            0.24531902632992       -3.44229018381184        0.60888069116329
C            0.63788334979694       -3.48247194047089       -0.74468080159151
C            1.65973577690514       -2.65459796290610       -1.22305135826760
C            2.26572893776137       -1.80664806363558       -0.32699163106729
C           -0.17524260490977       -4.48299252703045       -1.38885566736587
C           -0.19308541942304       -4.96778554335133       -2.69769207704410
C           -1.06325950173420       -5.98257453771619       -3.01269784763605
C           -1.90896449706494       -6.52888852685997       -2.04371713054434
C           -1.90432660499891       -6.06021836139543       -0.75299156422318
C           -1.04196982780428       -5.01581955249831       -0.41643713526478
N           -0.80646788350248       -4.35482046916455        0.80944423492690
C           -1.49093739644459       -4.49475475306159        2.06027088887117
C           -2.86268571268302       -4.79648788872056        2.05309701987109
C           -3.54239002397604       -4.91766596132432        3.21723451258425
C           -2.84741624689299       -4.72734763250319        4.42268819966945
C           -3.47039528718630       -4.83893190030935        5.68384872089712
C           -2.75906573109062       -4.63518956264020        6.82859755044429
C           -1.40050537490467       -4.31143643861862        6.76348522432630
C           -0.77464710495594       -4.19781774422642        5.55724150035914
C           -1.47340719631332       -4.40265997979596        4.34924442392762
N           -0.80827395932148       -4.28256454363392        3.17121036428241
H            3.74855217185335        1.04638613288974       -1.64401754424312
H            2.06700716637442        0.79471590976566       -1.17590615441321
H            2.75580998310751       -0.12637489958352       -2.51253697461016
H            5.49565371535044       -0.80700865197364       -1.13020322377553
H            4.50513169379697       -1.97671071224584       -2.00440927480930
H            4.96651035865459       -2.28745822103752       -0.33073114258957
H            5.19781093421154        1.18269107108478        0.60661650097104
H            5.19584250373952        1.83688897618681        2.98970858211002
H            3.61455734427825        0.80707872937010        4.55752583776454
H            2.00619714028465       -0.89504930280127        3.76668241771356
H            0.58145531929084       -2.58196013335054        2.54413251091291
H            1.95980253898799       -2.68512505865129       -2.25377372589314
H            0.47362958131159       -4.55210707949225       -3.43252172632631
H           -1.08698250144965       -6.37182201607300       -4.01730330416529
H           -2.57002654110802       -7.33628508934496       -2.31331319800309
H           -2.52703721769608       -6.50788952118337       -0.00003976927855
H           -3.37327308023019       -4.89033666010659        1.11165159541539
H           -4.59414489463328       -5.14623633172869        3.23176557524191
H           -4.51683668216578       -5.08735911618437        5.72775774360935
H           -3.24266300232635       -4.72267724531469        7.78773991924521
H           -0.84650932547260       -4.15237967893087        7.67416081478669
H            0.27127434486139       -3.95133108037656        5.50300005787224
