54
 energy: -10.948715594646 gnorm: 0.000602056688 xtb: 6.6.1 (8d0f1dd)
C            2.86696040636782        0.07762148597725       -0.91145678918819
C            3.14080014732219       -1.11691526877246        0.01146446221331
C            4.49921114364428       -1.75714224811089       -0.30428977602955
C            3.07263174038173       -0.69250555430004        1.48428939372417
C            3.83101661299792        0.22440839486766        2.18379464103503
C            3.56766769398557        0.42837642777894        3.52686832135224
C            2.55870715823754       -0.27472031839219        4.16659913444830
C            1.79460142241017       -1.19302747194418        3.47615783763903
C            2.05527680738383       -1.39969608632090        2.12907507292648
C            1.40467842743269       -2.29563458171978        1.17148842526872
C            0.36328936272613       -3.17704055736325        1.36614939732292
C           -0.06477112458641       -3.91820340465708        0.27265972344872
C            0.53808846725137       -3.78285090652918       -0.99213406356952
C            1.59788960353657       -2.88752187313357       -1.18223844799282
C            2.01785432811375       -2.15361037204459       -0.09663690966109
C           -0.14206063236524       -4.70216719624282       -1.87138229071739
C            0.04444021193455       -5.00744458693907       -3.22044619508576
C           -0.74668720237998       -5.97269428532554       -3.79346426282159
C           -1.71353392733672       -6.64626271349566       -3.04243915091174
C           -1.91071714022768       -6.35633310474614       -1.71465014033906
C           -1.13230361552184       -5.36404159186168       -1.11720782948407
N           -1.09913918899738       -4.86368695613782        0.20408063128303
C           -1.90608179310580       -5.11589371116704        1.35380701760116
C           -3.23508921982270       -5.52670993166464        1.19426200663514
C           -4.03842321583146       -5.69323302166858        2.27128460470645
C           -3.51080493462953       -5.43087687845275        3.55429089640513
N           -4.22368823172566       -5.54829998907439        4.71561836059414
C           -3.66848713198733       -5.27154532471243        5.83832830298117
C           -2.38877181740409       -4.85918248788800        5.93692995584483
C           -1.64334767016317       -4.72744725838886        4.87157429177671
C           -2.15500815137178       -5.00912148766663        3.62191152188598
C           -1.36953524444649       -4.86308166131831        2.53262230079411
H            3.63265278364220        0.84366994466214       -0.79396497984405
H            1.90138283891623        0.52614632342199       -0.67995863070693
H            2.85388749563692       -0.23266520550023       -1.95572598768093
H            5.30837662517416       -1.04049709444179       -0.16806133888608
H            4.53134827553843       -2.11480566197426       -1.33285375740356
H            4.68426939470271       -2.60523419985069        0.35424373111675
H            4.61302680358408        0.76750054416053        1.68241722287630
H            4.15431012908646        1.14236003650454        4.08141833951657
H            2.36852360851775       -0.10271324110864        5.21342311553746
H            1.00903343239395       -1.74551567330567        3.96119770203786
H           -0.10435059724294       -3.33208721580429        2.32011734559037
H            2.06661890103379       -2.78139656921425       -2.14260709487236
H            0.80006737225939       -4.49216050143011       -3.78684638078048
H           -0.61502220321164       -6.22099024626079       -4.83380949804758
H           -2.31000247939410       -7.41061452335026       -3.51320555397399
H           -2.62803502868413       -6.90467737358682       -1.13217027485731
H           -3.62582606778824       -5.66285638429145        0.20230425086457
H           -5.06438349225317       -6.00113039289522        2.16548076296799
H           -8.02739854438992       -4.21637680845563       10.35622444653494
H           -2.08034464044707       -9.87588274183436       10.98013982529761
H            4.13908963425093       -8.90545564444269        4.61030545748217
H            0.35371246694225       -5.83072284981036        2.09555085341969
