59
 energy: -12.493329343720 gnorm: 0.000717493954 xtb: 6.6.1 (8d0f1dd)
C            2.87586184582944       -0.64590350713634       -1.19037278398065
C            3.73772822188238        0.08647468928992       -0.15337194458326
C            5.04131789981801        0.59617400228760       -0.78228424486835
C            2.95578785459701        1.24085920816547        0.48387323020271
C            2.41229405619724        2.37154126699915       -0.09215179583282
C            1.74137009887095        3.27754005270667        0.70988259081208
C            1.61369308770222        3.05821978483579        2.07249509646433
C            2.15318254580213        1.93068625482912        2.65742686238421
C            2.82716508703633        1.01843703997333        1.85725096554761
C            3.48453443649684       -0.24408650377961        2.21121779607701
C            3.60574332723077       -0.85495032477740        3.44379321540903
C            4.28687475376614       -2.06911776061688        3.49786654300362
C            4.83873326338870       -2.64434788883371        2.33315411537390
C            4.71161862859325       -2.01767845577290        1.08853697316586
C            4.03420731045207       -0.82321187100482        1.04278346816682
C            5.49641912482863       -3.86447427525395        2.73188392276241
C            6.19912550920991       -4.83141542251361        2.01037236781823
C            6.71752271504309       -5.90988450432679        2.68568236545160
C            6.54584258510044       -6.04430811888728        4.06661403922250
C            5.85799420305837       -5.10101221626362        4.78993612125118
C            5.33077103075864       -3.99644692299070        4.12170328182862
N            4.58891853709362       -2.89697963902413        4.59823222488306
C            4.23537435757220       -2.63944775559684        5.96706601555584
C            2.92550775792049       -2.33445348117870        6.31734936991155
C            2.59673888800156       -2.08028563745191        7.63066358976344
C            3.56667557763673       -2.12646073090522        8.61024121671425
C            4.88921396781718       -2.43020013859740        8.28910135160001
C            5.93897338044048       -2.47672392216035        9.33297719934108
C            7.20079041135485       -1.93359418939405        9.09922147216402
C            8.17838235752087       -1.97799860377072       10.06952643654603
C            7.91591256289350       -2.56591789519178       11.29053027682105
C            6.67216823955185       -3.11004684388681       11.53916334718089
C            5.69231674304120       -3.06672528064439       10.57098874297076
C            5.20325377868474       -2.68404640729100        6.95934435180785
H            2.61249478138899        0.01601859243858       -2.01467124726049
H            1.95261777304676       -1.00428736153416       -0.73619733879409
H            3.40646667652475       -1.50469190959823       -1.60039992358310
H            4.83565451327192        1.29562210458036       -1.59189950494281
H            5.62706426929491       -0.22872030744249       -1.18646094405804
H            5.64926549383861        1.10964645840352       -0.03789293915777
H            2.51431995517908        2.53596055406321       -1.15067137967884
H            1.31367861166157        4.16349722144255        0.26967011072305
H            1.08783696211544        3.77503903270145        2.68179992865434
H            2.05893798452462        1.75095600872310        3.71396576170496
H            3.20087552495054       -0.40748794443404        4.33116255388436
H            5.13437785370401       -2.45447748725208        0.20311247129232
H            6.32363317941163       -4.72181712858485        0.94739636493888
H            7.26264753633004       -6.66518626620793        2.14359603607292
H            6.95946381348828       -6.90268704705973        4.57028151638151
H            5.71398759912986       -5.20237808544628        5.85068785295097
H            2.17264347880774       -2.31213850988923        5.54883412380119
H            1.57846550966507       -1.84416061770980        7.89322695564084
H            3.31127751990994       -1.91508025644112        9.63424901336329
H            7.40182948258017       -1.46471147683222        8.15136419807186
H            9.14876657109271       -1.55117691644884        9.87531701086645
H            8.68125939889320       -2.59989569751653       12.04874922179753
H            6.46739195612156       -3.57138854885530       12.49151223299533
H            4.72636854024548       -3.50197577922903       10.76038435207204
H            6.21598086962412       -2.91697263372092        6.68727579133721
