48
 energy: -10.122769171646 gnorm: 0.000693126092 xtb: 6.6.1 (8d0f1dd)
C            2.46813653968854       -0.93131914255082       -0.86252011186032
C            3.62958792841804        0.07119275083548       -0.83268304343186
C            4.20301110115798        0.29159891779977       -2.23892623112991
C            3.18229395162978        1.40108875147211       -0.21532953204664
C            2.22280684753787        2.29875451149444       -0.63807527323245
C            2.00794816083824        3.44898011595765        0.10010372012481
C            2.74251142735480        3.70141290923731        1.24790168463452
C            3.70341871420437        2.80966408943623        1.67872836253409
C            3.92259860373046        1.65357558329808        0.94234569925818
C            4.86823593198333        0.55509342546012        1.16640632528575
C            5.78779080840139        0.38146038515808        2.18201612806046
C            6.57316914548801       -0.76868161401451        2.15132235141480
C            6.43865767294956       -1.71215337142192        1.11026844546532
C            5.50062086887477       -1.53039473698901        0.08820246504868
C            4.72430707637244       -0.39791923612000        0.13002820637052
C            7.40533255771302       -2.75423971044184        1.35280334873895
C            7.72231771315346       -3.92147190862901        0.65591275648539
C            8.71467268183200       -4.73391833263583        1.14858692735754
C            9.39516057465592       -4.40608565769547        2.32505431697732
C            9.09533178800185       -3.26087648328276        3.02053243744632
C            8.09664251673335       -2.42051746529085        2.53008831174516
N            7.58896441801138       -1.20331672559585        3.02615390583080
C            8.02989954935182       -0.52244744672387        4.21153259661060
C            7.14139391824899       -0.06320210579625        5.16494196150324
C            7.68280878948064        0.56228515369764        6.26723916333883
N            8.99426888700143        0.69018466428103        6.36006368876621
C            9.83860774842531        0.30110512276369        5.54172441370810
C            9.37569956235591       -0.30417266664354        4.46114591261157
H            2.06811594083310       -1.08289776076648        0.13952643560676
H            2.79718334333813       -1.89701722293899       -1.24458809508681
H            1.65981494157609       -0.57188953696007       -1.49827290516588
H            3.44125912901058        0.68082077626847       -2.91352905925009
H            4.58124897958141       -0.64119691142061       -2.65560846807879
H            5.02492537860761        1.00608900800748       -2.20889910744640
H            1.65684457817212        2.09784371883724       -1.53090193246824
H            1.26138146699603        4.15636087445638       -0.22195525725103
H            2.56266850029007        4.60376065894535        1.80923681331031
H            4.28000381568227        2.99765594652800        2.56733167868557
H            5.90416203048308        1.11026785464638        2.96103500429326
H            5.39598418623319       -2.25070729865245       -0.70149933261694
H            7.19223362107881       -4.16737778802840       -0.24721792328146
H            8.97239268728024       -5.63810676125115        0.62215891194665
H           10.16664560493184       -5.06337620826997        2.69137591240591
H            9.60775293087875       -3.00720609718681        3.93117180953722
H            6.08201350385923       -0.21076542966630        5.04902459421845
H            7.04033982188250        0.93886756304033        7.04910050402769
H           11.78813337139193        0.33161671149422        5.38061193174807
H           10.10382068427968       -0.63505187413380        3.73851954723501
