96
 energy: -21.054686161174 gnorm: 0.000593169367 xtb: 6.6.1 (8d0f1dd)
C            0.02369393605437       -1.41720764792946       -0.48505533924618
C            1.29887500172536       -0.89562088610679        0.19091420147958
C            1.27254183713891        0.63421635506039        0.30923014829504
C            2.54624637956140       -1.35974171441273       -0.56890762272865
C            2.94373239778286       -1.10120463279611       -1.86501842564143
C            4.13118820855320       -1.64269146933905       -2.32370053311487
C            4.91466620320137       -2.43291876926005       -1.49764454506950
C            4.52634029215652       -2.69602539993921       -0.19997621839776
C            3.33532097799733       -2.15583817227439        0.26581372320196
C            2.69376088281473       -2.27294844040613        1.57898620859669
C            3.10784014071775       -2.96018785921663        2.70570241367285
C            2.28665701479626       -2.90430545528437        3.83038484942632
C            2.40422544962051       -3.50287506062306        5.13956926647790
C            3.38701274518626       -4.30264711086009        5.71430895538575
C            3.23528169393118       -4.71933698385110        7.02471480613642
N            4.25212801214930       -5.52489499514992        7.64487922323858
C            4.05488897380589       -6.75149436811377        8.30938894388942
C            2.89709197442039       -7.49796025371574        8.52619641649472
C            2.99656419330720       -8.68863729678027        9.20262563003447
C            4.23079444988160       -9.15329428938719        9.66679328893317
C            5.38186945714097       -8.43273706097405        9.45783170401349
C            5.29681021517083       -7.22025765699390        8.77175867317101
C            6.29296580527226       -6.24980040606519        8.38408801426627
C            7.67364478689062       -6.18805460698404        8.57945563342676
C            8.36055584926957       -5.10398226476101        8.08858158567925
C            7.69643518400750       -4.07858783836666        7.40879385086295
C            6.33891461648905       -4.12521410673587        7.20902645404896
C            5.62707732684353       -5.22141779836825        7.69546241304243
C            2.09582956913617       -4.33522764174508        7.75416990182253
C            1.12002020168083       -3.54857494448523        7.19829574702555
C            1.26913086968287       -3.12698961166477        5.87728906596489
N            0.45651476481182       -2.30053699741107        5.07138285870516
C           -0.77725600748735       -1.67712664620991        5.46029436538723
C           -1.82039180629831       -2.43133445118335        5.98974514571742
C           -3.01115160159502       -1.83509744779223        6.32626278683827
C           -3.19457165018008       -0.46472451863363        6.15369432996111
C           -4.47054741165395        0.17316722485771        6.49685975643186
N           -5.47743753307516       -0.61696219899426        6.83273112564936
C           -6.60644784235948        0.01374191064966        7.11004889341247
C           -7.77170577476519       -0.80893897457002        7.46349313333066
C           -8.99382583325445       -0.21536916712750        7.76444927778522
C          -10.08831146069334       -0.98637258570283        8.08685105541855
C           -9.98017606279497       -2.36295741470569        8.11389540826244
C           -8.77375696702322       -2.96673490530133        7.81789363263021
C           -7.67836155807901       -2.19695335933527        7.49532942310249
N           -6.77341068580065        1.32593191674044        7.09013169664706
C           -5.69767081633120        2.01610194235273        6.74953391083667
C           -5.81586451204569        3.48044903736570        6.71633216936381
C           -4.72135350152469        4.27369341276852        6.38570801825747
C           -4.83114381581963        5.64613158730328        6.35993175064669
C           -6.03606218538078        6.24904820029382        6.66360937336706
C           -7.13145851674561        5.47514738645698        6.99340966923021
C           -7.02296450317171        4.10260721956183        7.02001640268023
N           -4.52432226319292        1.49392854343436        6.43455565858087
C           -2.14423045567372        0.28893648080157        5.63495978281160
C           -0.95696587224848       -0.30755615089845        5.28984535548558
C            1.08314772599645       -2.16735129041062        3.81802139223435
C            0.67210155552948       -1.48044817001065        2.67295247682402
C            1.48354257674867       -1.53967326385055        1.56764442965535
H           -0.07929449778858       -1.00906334072378       -1.48977104858256
H           -0.86111286581444       -1.13956207693289        0.08657911158302
H            0.04864252862409       -2.50362957693893       -0.56189594075502
H            1.19731424168849        1.09971084356419       -0.67274762868006
H            2.18262177274858        0.99613726204123        0.78638980169581
H            0.42384747963267        0.96346651148686        0.90763405074743
H            2.33081230438643       -0.48716394906610       -2.50142923328949
H            4.44944841441439       -1.44816927559820       -3.33477310595954
H            5.83682596960104       -2.84619509171197       -1.87217941053342
H            5.12800994644745       -3.30797343960956        0.44871416167498
H            4.02411315815266       -3.51975404447746        2.71448165839316
H            4.25144460520674       -4.59567341989951        5.14892082604526
H            1.95306287913325       -7.13825945140546        8.15802873515698
H            2.11030433899520       -9.27631781204409        9.37729478109490
H            4.27919346315005      -10.09188525216925       10.19395234084812
H            6.33606192337130       -8.78475047131760        9.80820277649361
H            8.17653481256744       -6.97902038657258        9.10728392236696
H            9.42674741873841       -5.04065754726851        8.23148138080226
H            8.25956835747012       -3.23785804260424        7.03809806480076
H            5.81940492515016       -3.33634333229789        6.69527562372573
H            2.01129331114508       -4.66024587839086        8.77625361082113
H            0.25684276075412       -3.24328279401871        7.76196139421782
H           -1.68530655513654       -3.49185083957277        6.11050885634854
H           -3.82304637986127       -2.41781652497937        6.72497216854592
H           -9.06687393156337        0.85780234353235        7.73809600926826
H          -11.02976271853667       -0.51494526069019        8.31694973170086
H          -10.83741453742321       -2.96596844343096        8.36503535726529
H           -8.68953027364345       -4.04097489033096        7.83796399124888
H           -6.73409868628674       -2.65641288323332        7.26079948698875
H           -3.78722590682988        3.79322485292283        6.15270543002975
H           -3.97587569947787        6.24973326056952        6.10364469482335
H           -6.12137800675292        7.32322577026418        6.64371583523721
H           -8.07168844003818        5.94537218001489        7.23078480092480
H           -7.86919196554636        3.48991622359801        7.27733745060621
H           -2.28456406221815        1.34765902096547        5.50424530268728
H           -0.14611214380291        0.27657799734368        4.89111550114328
H           -0.25178057291089       -0.93394117396231        2.65956779687616
