76
 energy: -16.449044823937 gnorm: 0.000763676912 xtb: 6.6.1 (8d0f1dd)
C            0.10636120309415       -0.92680406546610       -1.27775209554168
C            1.44960121744965       -1.09922762620819       -0.55636733972944
C            1.46402846355457       -0.32956880164562        0.77129711911239
C            2.61035634277659       -0.65443193073679       -1.45302370073196
C            2.88022997319846        0.57916237872868       -2.00994976837817
C            4.00582595715470        0.72721642949223       -2.80024223072457
C            4.85343791688175       -0.34414103522634       -3.03301719429232
C            4.59206422969053       -1.58125591334352       -2.48068174703675
C            3.46448092575290       -1.73564346508541       -1.68591654739242
C            2.95071406279918       -2.92209352027006       -0.99443990908798
C            3.45786773055794       -4.20801697677523       -0.95350776883498
C            2.74323425395606       -5.15859990910070       -0.22631606322267
C            2.96585801455745       -6.56870496143925       -0.00537810794737
C            3.97542373186140       -7.43600965221192       -0.42238205222132
C            3.90843897111790       -8.75559748329970       -0.04363865115201
C            2.85358473791566       -9.22484853410590        0.74332573689884
C            1.85091510005130       -8.38274925616544        1.15817772446186
C            1.90080087771161       -7.04242677551452        0.77831552849523
N            1.02560245133344       -5.97068704187081        1.05613100452610
C           -0.22344076684396       -6.05580554746569        1.75936808270482
C           -1.16710312732271       -7.01528518512044        1.40539703084489
C           -2.37954772345985       -7.07193524483633        2.04705661459983
C           -2.68666772128459       -6.17596287578743        3.06814065454186
C           -3.99076673800509       -6.22789212455765        3.73864880023574
N           -4.88247446224884       -7.08219488324627        3.26375318726797
C           -6.04532226923442       -7.07560205049090        3.89271287832889
C           -7.08496616332402       -7.98927895230791        3.39784589759548
C           -8.34073195361738       -8.02726920111237        3.99544316594603
C           -9.31606940065376       -8.87872903261088        3.52587051829649
C           -9.05262556211848       -9.70607022342585        2.45197156521845
C           -7.81084517985955       -9.67976560893874        1.84836343673318
C           -6.83479393146601       -8.82861177800532        2.31672018283460
N           -6.34963398597090       -6.30927804424683        4.92685633368687
C           -5.37930794908699       -5.50145655406356        5.32158988841192
C           -5.65224511415886       -4.63296718953896        6.47566036620691
C           -4.67746343405451       -3.76508215336535        6.95766067330877
C           -4.93255004909615       -2.95596833887953        8.04251331554262
C           -6.16533064486699       -3.00040391402460        8.66341573738639
C           -7.14303235490843       -3.85657327789817        8.19637984019062
C           -6.88921333283361       -4.66642496087460        7.11185572535891
N           -4.18404456809693       -5.41268519393715        4.76267012536682
C           -1.73640844622839       -5.22328734743508        3.42795420048650
C           -0.52549519643649       -5.16203822009733        2.78275581370408
C            1.54742527430595       -4.81659685326808        0.44166406547229
C            1.04322986058378       -3.51430746861427        0.39158326824201
C            1.75256241141241       -2.58180846228177       -0.32317788810646
H           -0.08452261373483        0.12231675519174       -1.50018421178378
H           -0.71442090239424       -1.29882911715501       -0.66562525910527
H            0.10363621385420       -1.47791426640725       -2.21747738921780
H            1.31036803026379        0.73601103242248        0.60518366273248
H            2.42017411728822       -0.45815801710377        1.27745244487067
H            0.67878545296988       -0.68672463547137        1.43658891209640
H            2.21780577677951        1.40692201887025       -1.82627683817575
H            4.22523391632174        1.68632575864259       -3.23985832492756
H            5.72488985578471       -0.21062661122613       -3.65287046084465
H            5.24267086394637       -2.41946056116506       -2.65780171203437
H            4.36206386195760       -4.46893191108542       -1.47031458090332
H            4.78485313177340       -7.06591424459693       -1.02640143886418
H            4.68142041029296       -9.43842754595720       -0.35580610014379
H            2.82796910343255      -10.26330382263733        1.02998781522034
H            1.04072431695985       -8.73428433194920        1.77152194685158
H           -0.93960819052033       -7.69714803023564        0.60495228040321
H           -3.11392162014248       -7.80665860257349        1.76714700406204
H           -8.53537200680718       -7.37703275193298        4.83031318957540
H          -10.28549093665959       -8.89831206598525        3.99630847720541
H           -9.81643717772919      -10.37181032713925        2.08459305694682
H           -7.60509837283026      -10.32479255186946        1.00984815190694
H           -5.86443065647936       -8.79793696009637        1.85283398227763
H           -3.72004404773870       -3.74019677606469        6.46730373095877
H           -4.16912849808536       -2.28851174190614        8.40741912130603
H           -6.36415186500348       -2.36758766269678        9.51288582557713
H           -8.10494901657357       -3.89207317874604        8.68111326147451
H           -7.64293229384927       -5.33835169662813        6.74020569310509
H           -1.97215273830776       -4.53230918290955        4.21816599890888
H            0.20860684352464       -4.42819231753519        3.06556352743054
H            0.12522540914924       -3.25876782739448        0.88567081549554
