78
 energy: -15.921831145250 gnorm: 0.000505079702 xtb: 6.6.1 (8d0f1dd)
C            0.10870448457348       -2.37056761967716       -1.67697684948652
C           -0.06265252629254       -1.57491558931060       -0.37640730106126
C           -0.35857784037373       -2.50717936085309        0.80604801780919
C           -1.16390002227690       -0.51982323355149       -0.52468719169834
C           -2.51096939202515       -0.66807153148278       -0.78270329790967
C           -3.30615268304298        0.46029493918673       -0.86563996741941
C           -2.76345339956068        1.72327273578327       -0.69328868630808
C           -1.41814493410110        1.88203809947915       -0.43447005472848
C           -0.61471107169184        0.75318801138295       -0.34958083861512
C            0.82013389804041        0.62983442640754       -0.08268831340794
C            1.77871869069696        1.60579494199065        0.16066152470499
C            3.07565088702296        1.21949033411403        0.40156098731761
C            3.44755566129666       -0.13158387243814        0.40747168345962
N            4.79183701772482       -0.51344781767666        0.66844167849095
C            5.71520820862821        0.12416370155886        1.52483429941694
C            5.51111764840013        1.14727908419005        2.44509404339445
C            6.55928136675315        1.56884817562327        3.22603389971964
C            7.83210860600243        0.98364962954339        3.12592443794148
C            8.92840150411257        1.39673055710766        3.98047301438349
C            8.90971134769778        2.38681480526928        4.93178015444822
C           10.11928694438795        2.53160009046171        5.63194990980624
C           11.10896419383367        1.66326871009531        5.24208352878895
C           12.43119223955263        1.51952288213391        5.74768900931438
C           13.04097062371506        2.17237650093658        6.77141876424415
C           12.56440975823254        3.22696466185943        7.67821081944916
O           11.48747694530238        3.78444041614935        7.69946561585426
C           13.66315486264060        3.51146658085497        8.61215458751895
C           13.72610484150033        4.41705260582921        9.65484284729825
C           14.88341059642985        4.48907822429650       10.39993598382178
C           15.97541667398773        3.66580668220406       10.11775255896226
C           17.22318631000911        3.74545707605341       10.92629542819101
O           18.29253077474776        3.66818992473466       10.34981238623108
O           17.08843890394110        3.88486285405875       12.27561678012258
C           15.91208872723899        2.77319261798044        9.05596455054400
C           14.75188710805661        2.69898262498424        8.31308728938635
C           14.41238988693219        1.84695076184661        7.16786348201085
O           15.12660508409744        1.01774434839107        6.64403924115292
S           10.50652462539849        0.66142062570971        3.94886255188658
C            8.02173660965420       -0.05244648660434        2.20295148778803
C            6.97815486764852       -0.47679663882796        1.41828741629728
C            6.93477637419468       -1.59285070358118        0.40235761762547
C            7.76704663139953       -1.30778192309474       -0.87605395778771
C            6.86135367436952       -1.65261524652204       -2.07452923749518
C            5.41030639409328       -1.46987228983994       -1.58651960334947
C            5.43087567453959       -1.64930182009381       -0.05116433772166
C            2.47792928847570       -1.10294125961552        0.13924072454102
C            1.17812706840585       -0.72207721825992       -0.09481029081693
H           -0.79478105473304       -2.93164535707978       -1.91140779861629
H            0.93495327286641       -3.07545854418520       -1.59562142455471
H            0.31657735749058       -1.70073400816229       -2.51026001902468
H           -1.27591478225995       -3.06959600102347        0.63832264094634
H           -0.47671136980772       -1.93364533221528        1.72443661931520
H            0.45340101038321       -3.21775528708965        0.95393090814972
H           -2.92718375338923       -1.65127244967033       -0.91429915803359
H           -4.35968865041723        0.35524034588781       -1.06542623108399
H           -3.39899159292836        2.59076170057429       -0.76114597618480
H           -0.98821869593051        2.85839618907785       -0.29782203745964
H            1.49952339372312        2.64440671336066        0.15496895354294
H            3.83595533805780        1.96445293407958        0.55267894835817
H            4.53120155590007        1.57178067709368        2.56489506122712
H            6.39911295651098        2.35425481795377        3.94243460335779
H            8.04288546037395        2.99388632694855        5.13898313863668
H           10.26057735500035        3.25018396445639        6.41990057371368
H           13.03196262469163        0.76985445676014        5.25883860495963
H           12.87781602999466        5.04623235893209        9.86185658600703
H           14.96131463683765        5.20457306360224       11.20016288113114
H           16.14494799408617        3.85751367761533       12.54553328660581
H           16.75796547136360        2.15478633614564        8.81084724146953
H            8.98172694775990       -0.52664602638727        2.12064197846360
H            7.23852056863142       -2.54057480174776        0.87004724483910
H            8.70382090750157       -1.87726831359584       -0.88676163963587
H            8.04496342113782       -0.24897042858631       -0.89537071465358
H            7.02916614816115       -2.68818243083075       -2.39222890998270
H            7.08007637015779       -1.02065866735651       -2.94424460386723
H            4.71868408167722       -2.17032881196992       -2.06884698594877
H            5.04897856066963       -0.46303569237952       -1.81879365290692
H            4.95922772592503       -2.59051121659961        0.26171757516605
H            2.74047757620744       -2.14382521238283        0.14137591193488
