32
 energy: -6.378552226701 gnorm: 0.000528575977 xtb: 6.6.1 (8d0f1dd)
C            0.85060092468131        0.04065803528202       -0.02938033898564
C            2.38378970385830        0.02229376846362        0.00754350038842
C            2.90677556326665        0.04275261314240        1.44920612186798
C            2.96301451118137        1.19259282446447       -0.79979851916187
C            2.83803727662846        2.55579093810533       -0.62476396166757
C            3.47266360757051        3.40678615261675       -1.51253047480741
C            4.22414518720052        2.90497734597857       -2.56411314057321
C            4.35601295833138        1.54381012763326       -2.74855061520100
C            3.72141559854799        0.68626083303673       -1.86079930543653
C            3.69002032159256       -0.77141782024712       -1.81496008488135
S            4.33949630300510       -2.12006137198534       -2.71959874868863
C            3.57141104511616       -3.27852247273389       -1.64435820179721
C            3.60717974381267       -4.66675436853843       -1.69381316607875
C            2.92921007318759       -5.39167659674712       -0.74428261705525
C            2.20901238703189       -4.74804614085388        0.26357066151232
C            2.16286454071680       -3.37939069119152        0.32715601952309
C            2.85084801764137       -2.62496695363210       -0.63623761003992
C            2.93547058934974       -1.18878005153075       -0.75862126047782
H            0.46086587842781        0.93856556664987        0.44893141293074
H            0.43667518488585       -0.82508694357678        0.48581067726507
H            0.49296126796273        0.02356190122157       -1.05838537520488
H            2.57418221189870        0.93959899445164        1.97072235395731
H            3.99615279851282        0.02943183752004        1.46077437211451
H            2.55304753327770       -0.82398896977829        2.00587063592585
H            2.25345090064345        2.94013215209211        0.19273211581520
H            3.38122454018489        4.47292870438663       -1.38448909243758
H            4.71063884482819        3.58428196327214       -3.24482483186952
H            4.93581149855171        1.13955464346204       -3.55954951554417
H            4.16517148702725       -5.15371746942466       -2.47469186428629
H            2.95290858465036       -6.46861604893558       -0.77685482668769
H            1.68388678433096       -5.33524808829343        0.99900275341915
H            1.60889413209722       -2.87932441431029        1.10151292616267
