62
 energy: -13.375687330691 gnorm: 0.000844304513 xtb: 6.6.1 (8d0f1dd)
C            1.30230765629728        0.25504932601791       -0.04846587942254
C            2.83121102322564        0.12946483858395       -0.18537575034958
C            3.49466289389246        0.19010967999168        1.20097027542034
C            3.36087027948681        1.30840889885437       -1.04512594732494
C            3.07085130684715        2.60651073515159       -0.65173533815409
C            3.48337575328848        3.69728672450642       -1.38973738310155
C            4.20102998068116        3.51134811953857       -2.55061178041317
C            4.51221603864988        2.23684179467300       -2.95923644378463
C            4.11658842843410        1.13000900921888       -2.21929511862357
N            4.44696654561545       -0.18985563631708       -2.66197570124559
C            5.13981958187839       -0.78158147090097       -3.74569942535233
C            5.90943643449731       -0.03476782274027       -4.75244271819530
C            5.57584915372126       -0.11733417400209       -6.10401820332800
C            6.28736853510426        0.58727283149056       -7.04343449864699
C            7.36304362440018        1.38540286375446       -6.66565695361521
N            8.10968147508886        2.11816020691947       -7.64998841474891
C            7.57559047948978        2.99120194697321       -8.62080757260691
C            6.26218074454721        3.38770361147036       -8.86858449055013
C            6.02181843221299        4.27664776207774       -9.88748429094307
C            7.06771935797559        4.78061658791116      -10.66613185189749
C            8.36818104331817        4.40366144282879      -10.43239452372016
C            8.62839375006457        3.50237418985672       -9.39862483957457
C            9.85233141767193        2.92278963349962       -8.89849348488310
C           11.18520917684702        3.05436093852324       -9.29134102997642
C           12.14502015620266        2.34013195767587       -8.61543920672800
C           11.80085905259418        1.49557759757928       -7.55609502217832
C           10.49418973656589        1.35830312740393       -7.15636525656107
C            9.50838095884053        2.08028887632334       -7.82776594881200
C            7.70968571461926        1.45525704578972       -5.31983388018630
C            6.99651672254232        0.75622428599139       -4.37787004522771
N            5.01989320132495       -2.10193109601498       -3.74996034902949
C            4.27289198500096       -2.42711233584936       -2.65482652569835
C            3.84006414540731       -3.65431309322227       -2.13319195466406
C            3.08815281918971       -3.64931887454303       -0.98390517842173
C            2.74396726825719       -2.45449525004217       -0.32858102052585
C            3.14727775774405       -1.22981941792800       -0.81507972909204
C            3.91467192044618       -1.25308568955734       -1.97572512899369
H            1.01756593386300        1.18984738578172        0.43145700853951
H            0.89241746473422       -0.55827944991937        0.54868980321260
H            0.82935842354428        0.22224411500414       -1.02934532307878
H            3.27582702417017        1.13030020509432        1.70505524809784
H            4.57659631984915        0.10164558184376        1.10846376049969
H            3.14472669014789       -0.62044897405511        1.83901500337148
H            2.50943566916449        2.76852702767464        0.25179498672452
H            3.23967182857155        4.69441139332209       -1.06099356652011
H            4.51775900196311        4.36007945564556       -3.13467463471469
H            5.06203064018624        2.08595679193802       -3.86906706984773
H            4.74774577506052       -0.73945541091213       -6.39643399873269
H            6.03243476512470        0.52070891132589       -8.08658527232438
H            5.46427134093880        3.00190004720907       -8.25976548536828
H            5.01175529985410        4.59271250034629      -10.08989487607010
H            6.85018998020426        5.47696034489096      -11.45932261005536
H            9.17915049823391        4.78883767678604      -11.02480960386121
H           11.44060221517790        3.70035303414586      -10.11256190978598
H           13.17859874384898        2.42974944908575       -8.90685458544733
H           12.57298813625418        0.94181125467456       -7.04792270599717
H           10.21937640923790        0.70185037519394       -6.35041457491337
H            8.53891203831012        2.07632090563484       -5.02933855802345
H            7.26599173563647        0.80980951703944       -3.33706416350085
H            4.10428762777986       -4.56771018502405       -2.63500639254639
H            2.75187640051612       -4.58628638561278       -0.57159846250015
H            2.15670548567875       -2.49454473860034        0.57202859400150
