63
 energy: -13.498533580868 gnorm: 0.000880687942 xtb: 6.6.1 (8d0f1dd)
C            1.07578878582767       -0.43562577452739        0.43135805119392
C            2.58633806698156       -0.19589793756363        0.24380721991392
C            3.25458109716361        0.06499097240246        1.60399196176794
C            2.79589751528727        1.04733684153840       -0.66110610333659
C            2.16630040541244        2.23633982839097       -0.32331070079336
C            2.25769680639067        3.35763475323139       -1.12265763132984
C            2.98153453963490        3.31034016887500       -2.29344655066537
C            3.63153833875782        2.15128202571927       -2.64386138246530
C            3.57827815076724        1.02501709869677       -1.83174309879266
N            4.27625602264175       -0.16914486940417       -2.20201105628824
C            5.15527157506212       -0.59512985436235       -3.23075267144837
C            5.83323154408057        0.28888409235659       -4.18065067191340
C            5.93839301998124       -0.06872159037354       -5.52613771602153
C            6.57885381733766        0.74993808254471       -6.42065904455295
C            7.15122125910847        1.95407793065976       -6.00264428917776
N            7.80480411533481        2.82812230808370       -6.94422194106022
C            9.19835365557705        3.09852515204891       -6.83952177040172
C            9.98400414714688        2.47208160696747       -5.88520807245693
C           11.33702235642629        2.73382195079522       -5.79265822005618
C           11.92547992401879        3.62668602038265       -6.66124292076433
C           11.16346747217544        4.25270032719934       -7.62635723586348
C            9.80176548521233        4.00083157646975       -7.73776550444161
O            9.07861402397770        4.64303103132207       -8.74010259346551
C            7.71786046299974        4.36553090033435       -8.84695608867896
C            6.98091014267945        4.99732573992954       -9.84064441197602
C            5.62641762406219        4.77117339682126       -9.97431261627514
C            4.98537622551133        3.90964464564466       -9.11186217368276
C            5.70062547866147        3.26896185436496       -8.11920879440249
C            7.06361806398708        3.47372216378911       -7.97432730170439
C            7.07379705118282        2.29611090451481       -4.65041607320332
C            6.43359753123728        1.47727624171816       -3.75680511028653
N            5.33390129946094       -1.91027351411459       -3.21598511775051
C            4.62888717262143       -2.38687387205969       -2.15112738726407
C            4.48099192473074       -3.67343297637941       -1.61261511706397
C            3.71449127082062       -3.82720943127057       -0.48353102900801
C            3.08400984215654       -2.73604846727817        0.13822294030715
C            3.20234617777499       -1.45822401786517       -0.36590242913879
C            3.98327521009939       -1.31886713695216       -1.50920558128188
H            0.58963011831110        0.41614110612236        0.90357432251638
H            0.89027241710598       -1.30645215416887        1.05821026633536
H            0.59650191897569       -0.60650063159654       -0.53192791861223
H            2.83206315310315        0.94344044025508        2.08976650237256
H            4.32356342966394        0.23188472697398        1.47559187995805
H            3.12446275867989       -0.78480088753306        2.27288649946148
H            1.58958426426178        2.28692826495712        0.58358325544242
H            1.75278690725341        4.26606743791897       -0.83735083066012
H            3.03923654595895        4.17754110277251       -2.93085803356671
H            4.17365501206038        2.10253395548595       -3.56967725297345
H            5.50376962614705       -0.99890506133777       -5.84884927845025
H            6.65837236475886        0.47288401288873       -7.45731399174713
H            9.52747099198011        1.76652295013719       -5.21442942972127
H           11.93154017611796        2.23871470906323       -5.04255798697770
H           12.98085396768824        3.83310121822687       -6.59079950312170
H           11.61114353360147        4.94577225797334       -8.31629435789582
H            7.49258826854268        5.67300405890103      -10.50240022683298
H            5.07114268580790        5.27188724681613      -10.75030335215293
H            3.92675564429778        3.73505728043866       -9.21102021925332
H            5.19686681962282        2.60499007040139       -7.44063242959085
H            7.51914736746838        3.22008584088570       -4.32521035123214
H            6.39111886145756        1.73735281377095       -2.71315165863621
H            4.96974402389199       -4.50646474501584       -2.08493071427362
H            3.59596198642391       -4.81017472808154       -0.05853865584143
H            2.50477955452417       -2.89755945889391        1.03029169929654
