56
 energy: -11.669658058021 gnorm: 0.000528595167 xtb: 6.6.1 (8d0f1dd)
C            0.99940181827333        0.08805426647279       -0.11421682883487
C            2.54095605059825        0.05958647937352       -0.09096961265830
C            3.09823934162382        0.07603740852350       -1.52797867704058
C            3.03978105187234        1.31435281691241        0.63607376450420
C            2.69189722370237        2.56639264434861        0.15249965847212
C            3.10706005117378        3.72373526490259        0.77752462439028
C            3.88366489083912        3.64696072662922        1.91147852233944
C            4.24086946569191        2.41692427912217        2.40687068575216
C            3.83863793117921        1.23761053203742        1.78278603883072
N            4.22977352299588       -0.01583298226263        2.32623161420923
C            5.08161362548632       -0.04933639192479        3.47992284492761
C            6.39425358014166        0.43454021705527        3.40140660806798
F            6.85654233058218        0.92709417257612        2.22844344435420
C            7.19898723222921        0.41108052360248        4.51553201892875
C            6.72988884065672       -0.09239503997913        5.72356621504899
C            7.57977228361453       -0.11536722870643        6.90305802983130
N            8.82700666401550        0.35536625797405        6.95091781639769
N            9.28280946927332        0.17833669900137        8.15046166278305
C            8.33121912225008       -0.40853075261634        8.87795793836067
C            8.46387705822896       -0.77230726903472       10.28146552679331
C            7.42386933865017       -1.42558830790738       10.93208283593405
C            7.54138305997011       -1.77625855918449       12.25796267457849
C            8.69772855035469       -1.47766587093968       12.95156846493076
C            9.73770902494467       -0.82764724977184       12.31637330137370
C            9.62358099939582       -0.47730138131361       10.99019748774235
O            7.22405507173717       -0.61448373424850        8.11557182041320
C            5.42867616113464       -0.57401843947069        5.79711279034909
C            4.60471304139251       -0.55428311704773        4.69681381352145
F            3.33584896698446       -1.01919500445183        4.77701972822550
C            3.79517252247624       -1.23372356387326        1.73652262452289
C            4.18856064063629       -2.45007002178296        2.29124527647811
C            3.79416433498163       -3.64701092465333        1.74551158238366
C            2.99892765896403       -3.65276615431924        0.62199661058050
C            2.60782307869437       -2.45821510560737        0.05415186741533
C            2.99213896133340       -1.23850982550115        0.58997777779676
H            0.62496941740295        0.98255173697847       -0.60857699624863
H            0.60644523970652        0.07573024199250        0.90159776291640
H            0.59352544934934       -0.77320069504277       -0.64167594629888
H            2.78753052025051        0.97107312649933       -2.06397103811680
H            2.75509195316700       -0.78604523537972       -2.09717482554208
H            4.18718987427925        0.05597985285052       -1.51048735665056
H            2.08402266267662        2.63943021994726       -0.73211804935201
H            2.82463252625472        4.68480425435681        0.38035110299778
H            4.21266769575380        4.54620540271299        2.40588275564825
H            4.84990733855860        2.35634411457165        3.29102848718664
H            8.20237710930781        0.78768864963277        4.44534807734843
H            6.52888413235900       -1.65210153635507       10.37823186329783
H            6.73093714679088       -2.28449974793935       12.75373494934729
H            8.78853414977478       -1.75279895058029       13.98944155247819
H           10.63917989531642       -0.59484066167751       12.85867893184278
H           10.42739492218094        0.02844257351227       10.48389285538867
H            5.05751498913205       -0.96290844244484        6.72724755788709
H            4.80742976585602       -2.44537664178891        3.17051455835367
H            4.10388199965831       -4.57575865539118        2.19587956689532
H            2.68457228064722       -4.58738274542708        0.18742388205499
H            1.99175796549550       -2.47578222496154       -0.82764024313803
