53
 energy: -10.727068227157 gnorm: 0.000507232952 xtb: 6.6.1 (8d0f1dd)
C            0.88680262838888       -0.01625183773859       -0.06490066151301
C            2.42819053398916        0.03145333211374       -0.05782020305543
C            2.96604889036860        0.06272311907666       -1.50215474901592
C            2.87337462145366        1.31680156772192        0.65340648998366
C            2.46572475539772        2.54762075072346        0.16149382238678
C            2.86065113604068        3.72946197226134        0.75394708396056
C            3.68415129125665        3.70078513422583        1.85722358389729
C            4.10046143929510        2.49286275043738        2.36177878928005
C            3.70174665955685        1.28975879963162        1.78189780785646
N            4.15106993309389        0.06035263383288        2.33503837167951
C            5.05062141046558        0.06755669474845        3.46515449715638
C            4.60117413070804        0.40962012889172        4.73711713697962
C            5.47621196410338        0.38087951656343        5.78767737824605
N            6.75552283527559        0.01806377438200        5.60194963970576
C            7.24746746886333       -0.33123751079134        4.38199524881069
C            6.37939645339826       -0.29795717435231        3.30262603904923
C            8.64069775585806       -0.73768966856684        4.26093780163698
C            9.21155877633491       -1.11904886912601        3.04892272570473
C           10.52908607483094       -1.51166470659412        2.97491736021068
C           11.31209111853148       -1.53350376881964        4.11297181375008
C           10.77502794079805       -1.16200465904166        5.32013560238183
C            9.44330270296341       -0.76076234563476        5.41926066741006
O            8.95782031995586       -0.40387547993441        6.64878595781147
B            7.58035277486691        0.04784207934116        6.89034071607977
F            7.57544024012109        1.36386716311022        7.34565399719691
F            6.94747908541499       -0.79481221971346        7.80055629141200
C            3.75629517948997       -1.18287238296741        1.77119472011467
C            4.17456270238934       -2.37172234950036        2.36688922783458
C            3.82572302016308       -3.59311321741714        1.84437390351200
C            3.04534307527738       -3.64980208936554        0.71122800297867
C            2.61415739115713       -2.48221779828999        0.11558973494749
C            2.95022475317782       -1.23822645861596        0.62812517393578
H            0.46356446290630        0.85349488426188       -0.56395959598363
H            0.50448601775081       -0.03786628534438        0.95468910211659
H            0.51871866124852       -0.90160200114316       -0.58009388473201
H            2.60370526683846        0.93598971072510       -2.04166550902606
H            2.65942463401231       -0.82057432143993       -2.05952190301033
H            4.05465874865968        0.09739299169030       -1.49962898389405
H            1.83025325208939        2.58407906903565       -0.70574469754313
H            2.52906732088844        4.67284854930762        0.35221414898701
H            4.00056664489578        4.62028810983459        2.32153252450620
H            4.74975714129150        2.46810742642250        3.21833863119984
H            3.57067742776220        0.68403881076347        4.87806730098280
H            5.16804874248482        0.63921627200688        6.78689670943046
H            6.71402429275087       -0.56250390046618        2.31852769379239
H            8.61823992303827       -1.11072241629748        2.15291305951944
H           10.95120447619048       -1.80429919832585        2.02764290420445
H           12.34270231652666       -1.84252942930297        4.05338027462507
H           11.36843784308810       -1.17327341191278        6.21716814825885
H            4.77822806877330       -2.32435190113256        3.25542821642019
H            4.16071361652750       -4.50104752282872        2.31832121737924
H            2.76936320976123       -4.60396986268154        0.29327735686581
H            2.00151886952934       -2.54044245376489       -0.76677668642466
