53
 energy: -11.741472628750 gnorm: 0.000950397128 xtb: 6.6.1 (8d0f1dd)
C            0.91448935796336       -0.36173054810822        0.53645504031877
C           -0.30118678972316       -0.46832567049003        0.42362353054405
C           -1.68273538261174       -0.58663350019948        0.28979424400822
C           -2.41952828848241       -1.72872140688313        0.38121769546602
C           -3.81582971061147       -1.53015947819916        0.19680306003780
C           -4.14715301473240       -0.24151459346146       -0.03516761703357
S           -2.74128057901308        0.76203865379655       -0.03184772728199
C            2.30375676458556       -0.24606632517759        0.65656559182890
C            2.98613267046337       -1.26688615769743        1.32445711723743
C            3.59030025275771       -2.15321270617890        1.91643478078662
C            4.30975880769131       -3.13770341870834        2.58916543893390
C            5.31727361784314       -2.94292840617872        3.48498290131860
C            5.86330887434661       -4.14734128026892        4.00865831598634
C            5.27712339578830       -5.25949093476310        3.51517821754748
S            4.03376984217239       -4.84798430701192        2.38921621285853
C            2.91188881450545        0.84849771652549        0.12443724922360
C            4.30491129706672        1.15656266964760        0.12230627391913
C            5.35891484552320        0.42124845751601        0.62046839932988
C            6.61385724561376        1.01761403821215        0.43571570307170
C            6.57233839065848        2.23516498799735       -0.20968110672785
C            7.71763795176641        3.02612164276172       -0.52264596690716
C            7.71241509689506        4.23394413992998       -1.14683393712219
C            6.53579109639242        4.86684711700978       -1.55870148961757
C            5.48020283809705        5.38803431636280       -1.89546015263469
C            4.23695206011031        5.91484175063590       -2.23525737538208
C            3.03346035674447        5.30957324967877       -2.03363378186722
C            1.91983205410828        6.07447261115587       -2.47478808136849
C            2.26920610097240        7.26275935988085       -3.01359175154476
S            3.98516163186614        7.46660212482477       -2.98940738319993
C            8.93115539438094        4.87723463199899       -1.38935116688076
C           10.00311925574868        5.43068880102382       -1.60461628903868
C           11.22829670629193        6.04663268117579       -1.84990268931626
C           11.46160435241808        7.37994108594108       -2.00401400191942
C           12.82585609182329        7.70221159454143       -2.24552308335243
C           13.63384528576579        6.62027541202954       -2.27636592763533
S           12.72974271982762        5.17327134731565       -2.00723372420855
S            4.91413050136554        2.62900335483601       -0.57373300850633
H           -1.97604122814213       -2.69320118542141        0.57617063849694
H           -4.53693955375325       -2.33365389049065        0.23806236608700
H           -5.14176613702537        0.12687799423967       -0.20130467419589
H            5.66273632873165       -1.96046260575842        3.76849666216416
H            6.66661140265900       -4.16642435339883        4.73070584066353
H            5.53468359388005       -6.26864712958666        3.77556172777902
H            2.27564759420593        1.57263390980264       -0.35579138383350
H            5.23383475264563       -0.53162287833442        1.10563319937714
H            7.53715771651374        0.56503682519890        0.76344338158036
H            8.67405614671925        2.62147106516263       -0.23868618390977
H            2.94874308326246        4.33598789832971       -1.57644036522984
H            0.89783705761631        5.73544475914538       -2.38638533404007
H            1.58814407964128        7.99295579953326       -3.40788013352996
H           10.67662454338155        8.11864497389587       -1.94678494559389
H           13.17717180359029        8.71350452011159       -2.39013687322511
H           14.69408890896841        6.63766128629720       -2.44421743354402
