69
 energy: -14.556562854156 gnorm: 0.000746450348 xtb: 6.6.1 (8d0f1dd)
C            0.94604828155850       -0.13012860375526       -0.13437089401552
C            2.48718839242950       -0.08645120747783       -0.16384584039604
C            2.99378278987713       -0.20197448646918       -1.61536015563860
C            2.94870901303052        1.26209869890168        0.40519800088868
C            2.52821410228856        2.43876186628003       -0.19682466351224
C            2.91326127696595        3.67417646344980        0.28320340868029
C            3.73546584254736        3.75439229564974        1.38557690549167
C            4.16581839721810        2.60137004322540        1.99666024172155
C            3.78728952046478        1.34627363847440        1.52320197363724
N            4.24475778674252        0.17812314403401        2.19277116804947
C            5.11418685684240        0.30725243745357        3.34104198350640
C            4.61410633546866        0.14923715255740        4.63300297756745
C            5.43816658776303        0.26609327347569        5.72477806040812
C            6.79859969383626        0.54421241460860        5.56789634693827
C            7.72358492621970        0.67303836196864        6.70374656550475
C            7.36812818588534        0.26631375870024        7.97276541441771
C            8.27508953638862        0.40314084894000        9.00159775602859
C            7.94481612745347       -0.01336149767551       10.37618276237568
C            8.73207295722581        0.44411212837488       11.42967223211494
C            8.46252950009790        0.07784436063223       12.72969872920745
C            7.40028703159631       -0.75963207504709       13.00405550591290
C            6.61245052554628       -1.23097002557136       11.97301154264408
C            6.88001791646757       -0.86505123976331       10.67183038681087
N            9.47621111954393        0.93099867632940        8.77804999412517
C            9.74215280562956        1.29276472777568        7.52401721106723
C           11.07113506283395        1.87002605110173        7.27404209307105
C           11.43059898155879        2.30157030105743        6.00104520997175
C           12.67466271832854        2.84487044382630        5.76831753201767
C           13.58075390599393        2.96617701730314        6.80374222396632
C           13.23903091117340        2.54174705343326        8.07285697202742
C           11.99505036643172        1.99869925766639        8.30647553577045
N            8.93081540307497        1.18644934326678        6.47369985842885
C            7.28997887366200        0.71119766602704        4.27335768798678
C            6.46896780665430        0.59333198687597        3.18013795070472
C            3.85339135397236       -1.11547172486640        1.75027278475922
C            4.31732553018823       -2.24219684304615        2.42710118985414
C            3.97129084486495       -3.50959228275002        2.02455789156610
C            3.15185905407784       -3.67605068854968        0.92983876084550
C            2.68714207870529       -2.57045702450496        0.24678473788091
C            3.02286320028571       -1.28208602988212        0.63552253745865
H            0.51354054014562        0.68721059800163       -0.70912425259563
H            0.58445519539967       -0.04915691032367        0.89013107321347
H            0.56734558236784       -1.06177083901600       -0.55165674822201
H            2.62473024249348        0.61694347951619       -2.23085617925543
H            2.66965634782166       -1.13364740383806       -2.07641976444358
H            4.08269473930416       -0.17602024956308       -1.63909310805223
H            1.88606405359804        2.38896334080479       -1.05885641957662
H            2.57090310395704        4.57352222737299       -0.20226410664134
H            4.03877186112536        4.71602989554174        1.76642290622733
H            4.80412823076388        2.66014542773007        2.86012494978976
H            3.56617211621317       -0.06201660186563        4.75655455155571
H            5.02416283338894        0.15972750142440        6.71124679305488
H            6.39759202780349       -0.14919268230227        8.15912307386644
H            9.56023877953693        1.09409457332908       11.20657714870594
H            9.08194747940198        0.44363719369977       13.53229332564106
H            7.18869563524824       -1.04828635596394       14.02072901460734
H            5.78701534090898       -1.89032825484556       12.18697664773207
H            6.27128584722291       -1.25569090053247        9.87608490889749
H           10.71690097876048        2.20353754622144        5.20178970442072
H           12.94109544705921        3.17633074479433        4.77799717262412
H           14.55368804688087        3.39255600483331        6.62164621522477
H           13.94580318398903        2.63626943522136        8.88107673103140
H           11.71805646769611        1.66575868041406        9.29145060730521
H            8.33573138761640        0.93085661584764        4.14729054847379
H            6.85750624587457        0.71412683966262        2.18403897639041
H            4.96108911923635       -2.10881216050649        3.27810023820326
H            4.33939703532990       -4.36883084630974        2.56117605873522
H            2.87618456938498       -4.66656827639772        0.60650683060694
H            2.05080596057535       -2.71326830498096       -0.60912747736942
