52
 energy: -11.327189058863 gnorm: 0.000723300864 xtb: 6.6.1 (8d0f1dd)
C            0.80400320097947       -0.10954976988348       -0.09925833922804
C            2.34466930625757       -0.06207765519880       -0.13171935545736
C            2.84866582577689       -0.13102878307262       -1.58722397842215
C            2.80344295664567        1.26908556566497        0.47915641285882
C            2.39691176063406        2.46363318771523       -0.09569608475588
C            2.78381184025519        3.68289697026300        0.42152792415898
C            3.59273433122638        3.72922082438516        1.53508209421331
C            4.00805405248863        2.55832475669153        2.12098097600276
C            3.62681057190295        1.31949994761159        1.60989116574908
N            4.07978189694858        0.13233055482886        2.24687690961217
C            4.94553297545899        0.22786588326681        3.40151542948368
C            4.41683631285678        0.21535936261936        4.69121453259864
C            5.23697660100040        0.30691087924840        5.78803884423613
C            6.62174247579621        0.41302883373007        5.63825323317790
C            7.55190776451821        0.51476514140772        6.77079852892137
C            7.12280016799264        0.34226033049279        8.08193044897989
C            8.01845164532392        0.44022777698728        9.10905787788766
C            9.34336195076197        0.70970588755068        8.82386741189364
C           10.26443233409723        0.81177287082288        9.87560231972595
N           11.00414119205356        0.88901381230730       10.76879694843220
C            9.70765598960687        0.86788602190322        7.47977811951907
C           11.04555342428593        1.14180946980951        7.14809711140849
N           12.14623186901301        1.36888931588723        6.85006725965820
N            8.83252257867190        0.77047729450476        6.47665389414372
C            7.14189466999558        0.43148168726708        4.34467267139832
C            6.32553211549029        0.33963078432895        3.24653051195562
C            3.70642280045575       -1.14727384422596        1.75343388790338
C            4.17081574999187       -2.29157232883754        2.39849819004472
C            3.83553190284533       -3.54670580166868        1.95241308367520
C            3.02575256647598       -3.68172943031097        0.84673841608513
C            2.55921034824602       -2.55791068101745        0.19626295937296
C            2.88485067513997       -1.28120495221225        0.62820701004654
H            0.36911475142641        0.72624656841391       -0.64416188834575
H            0.44579815129084       -0.06352251815182        0.92822575295909
H            0.42546381373299       -1.02699673279858       -0.54613456716133
H            2.47529796961212        0.70417975180540       -2.17699418212456
H            2.52738622034617       -1.04907404064195       -2.07592860580979
H            3.93710693372096       -0.10005137028635       -1.61234881119303
H            1.76465470199792        2.44138497469529       -0.96584844559717
H            2.45413667023087        4.59684865643691       -0.04448168581003
H            3.89831838308249        4.67834957399722        1.94383796535634
H            4.63949884554900        2.58971949702142        2.99078604887551
H            3.35054847087530        0.13613056442610        4.80914204607156
H            4.80219540328745        0.31035129365625        6.77039107314718
H            6.09336280955806        0.11870385136175        8.29317346603889
H            7.71050119640354        0.30957555728859       10.13279398896733
H            8.20748327249844        0.52042047703925        4.22445305138513
H            6.73610772788496        0.35276265845897        2.25246769125355
H            4.80449307238128       -2.18135571843080        3.26018582483043
H            4.20412077816419       -4.42059307049486        2.46394016345502
H            2.75818952245378       -4.66279723464935        0.49026444183150
H            1.92842745231189       -2.67716665201783       -0.66702974340975
