52
 energy: -6.213882624054 gnorm: 0.036843974296 xtb: 6.6.1 (8d0f1dd)
C            1.60478284973576        0.39434082306857       -0.55616320283879
C            2.77709206993823        0.61397050452206        0.29294151943770
C            3.85460820561651       -0.30306631061393        0.09391441590997
C            3.17998229255898        2.03386895527553        0.47817834391498
C            3.25504901143126        2.88678537057935       -0.57117329098503
C            3.65007466527679        4.13843545148867       -0.41607805598185
C            3.98835591337963        4.59783929688671        0.77678768235289
C            3.94797643365774        3.81868629794335        1.83758337486845
C            3.54480568368592        2.52086337868600        1.74749252796884
N            3.48894660889953        1.70508808293334        2.85507800238131
C            4.33738325858911        1.78941818553545        3.87521751664430
C            4.15924931083245        1.30753359555347        5.09740300995108
C            5.04409928313734        1.26985118223998        6.06780380740941
C            6.30992929913102        1.65292665897420        5.98475070226458
C            7.26406709472554        1.51682315781465        6.96361280970512
C            8.51931865643753        1.92172815391885        6.90350316326418
C            9.48488902587984        1.78671352818684        7.79284005679691
C            9.56616526949230        1.18099254262059        9.01397619314042
C           10.77999654468947        1.28897444000316        9.70383059009288
N           11.79892835727211        1.37267208358344       10.28268688494181
C            8.58195280353615        0.46552104071362        9.61821137704738
C            7.34733760438709        0.09283139268385        9.32938728881544
C            7.40019476762508       -1.24267476850223        4.71482129045350
C            6.37142431054806       -0.10362133738127        1.47619022216029
C            5.52389807019182       -3.59839683166486        0.70289729053321
C            5.37771928123486       -3.43961294274125        1.92803480645778
C            2.61097904706159       -5.38360900203935        0.71715530674326
C            2.07295580012626       -4.52934237675804       -0.07395140774115
C            1.66186365233478       -3.31334307998851        0.22822996046366
C            1.70949498595816       -2.73269968737999        1.37250012833687
H           -0.60132516619259        2.56357732135364       -0.89991449158825
H           -0.11397621786253       -0.28507709241095        2.97169519228719
H            1.22229097204746       -0.60192902148960       -0.46666344782771
H            1.80262498071046        0.61625382888136       -1.58575234751763
H            3.89239250933435       -2.16465004131722       -3.99572568913424
H            4.61857008928986       -0.19441214177250        0.80833576738310
H            1.35672219072148        3.60998196909766       -1.97876519121072
H            2.04748021744749        5.98007165354493       -0.76004607888230
H            4.84808280119566        6.34528776420249        3.35760423849616
H            6.45418336583666        1.52332363551066        2.21002728015093
H            2.22823545025586       -0.04144449505577        3.43842123988779
H            4.71408445998494        2.08429803518455        8.13760063805316
H            8.75914864672472        0.02077995735832        4.61173868644001
H           11.86818575658798        1.90786467839810        7.41012596010316
H            8.76401046172615       -0.05052122314202       12.44178078335668
H            5.92506816055247       -1.62293752656812        5.77428225231788
H            8.55030068833330       -2.61361149786753        5.17756086609907
H            7.83604645799919       -0.63922449366063        0.61735107004258
H            6.78090874694551       -0.76646055339640        3.09549223495163
H            3.96394648359779       -6.03295729121596        2.55808566010027
H            2.86900429057059       -7.48764353969414       -0.34292766861127
H            0.79255449303335       -2.91070771254091       -2.57014927083297
