102
 energy: -21.503828395541 gnorm: 0.000403120644 xtb: 6.6.1 (8d0f1dd)
C            0.86144852931222       -0.28682003571984       -0.12055557464658
C            2.40060766341956       -0.19520580846666       -0.08381351275841
C            2.97085616890995       -0.26091964629007       -1.51427515735089
C            2.79405702173499        1.15311196127377        0.53422192828520
C            2.35450131750290        2.32947469887236       -0.05423809405095
C            2.69883250692225        3.56511825613608        0.45447167174318
C            3.50233418625540        3.64626668094705        1.57008445079213
C            3.95137377506496        2.49365172834694        2.16778310564306
C            3.60632000716653        1.23762020886132        1.67156242181748
N            4.10119930826587        0.06914104701952        2.31465074975546
C            5.01540957553385        0.19789654956286        3.42699825079003
C            4.56181465135784        0.59306529452389        4.68519406038908
C            5.43873309112652        0.74227249283651        5.73044513196774
C            6.80470196301542        0.50258924124252        5.56294628822043
C            7.75120292146519        0.69289034394969        6.67892551821057
C            9.04943238720647        1.16100145432192        6.45003039579491
C            9.92155897533644        1.35625101799888        7.49174924035759
C            9.53892379848323        1.09473139865247        8.79985836860762
C            8.24256044272844        0.61951134666142        9.05065078036704
C            7.37364292440322        0.42748307478576        7.99141262371846
C            7.79584658921839        0.32430715268953       10.42107637547152
O            6.67089127115591       -0.09127793653644       10.63382073576862
C            8.74376048770615        0.54761138011966       11.51987316333274
C            8.36857754234763        0.28024765083504       12.82977460319066
C            9.24050901453076        0.48751230843187       13.87059827794630
C           10.53046305342443        0.97631100967440       13.63848049147323
C           11.47962235020341        1.20583852794631       14.74505238931582
C           12.38675368125234        2.26695479633256       14.69688997387828
C           13.29241577912219        2.46869470922670       15.70753832802826
C           13.33115978965441        1.61440355793082       16.80868034642140
N           14.31328160610830        1.80856025954337       17.85265565797754
C           14.09969849810351        2.80406326136194       18.84492631649185
C           12.89486934544403        3.50408402801872       18.86336528957191
C           12.64923079445961        4.47579384301867       19.80311010827803
C           13.60951585854482        4.76828146360706       20.74637379068850
C           14.80681212504273        4.08201248440862       20.74256842036316
C           15.07446271424114        3.09394674473143       19.80710140401368
C           16.42132949427423        2.35922381001649       19.84414583066290
C           17.54390904096886        3.38812016023524       19.60597790235190
C           16.58612614939961        1.70461440477707       21.23092156090356
C           16.52986297989397        1.26630375975716       18.77230670774542
C           17.67625661871751        0.48930980581029       18.69974721362420
C           17.82458151272304       -0.49256828163165       17.74142213920728
C           16.81924470060882       -0.71378854086199       16.82627025105312
C           15.67586102263670        0.04606752404895       16.87775675550990
C           15.50848845961160        1.03791758821689       17.84245705599724
C           12.42083997830967        0.55938844318962       16.86731862878353
C           11.51341215503227        0.36069065712418       15.85661988673087
C           10.90235377224723        1.24030925716635       12.32471799521970
C           10.03556241457099        1.03366049614050       11.26773331101212
C           10.48463075461235        1.32303417621402        9.89809119638498
O           11.60868551980434        1.74153528148385        9.68575165839625
C            7.25142349223290        0.09427805005172        4.30410564398063
C            6.37607468979401       -0.05561545015489        3.25810323022544
C            3.74349323270183       -1.22478730620428        1.84562252887368
C            4.19229236952169       -2.35115347208161        2.53296185270044
C            3.87370520247447       -3.61903302953372        2.11037967430084
C            3.09541197329050       -3.78584705888523        0.98629180054217
C            2.63770201246452       -2.68053088500208        0.29848078080188
C            2.94217197711438       -1.39164144187587        0.70979957945392
H            0.42741368016737        0.52951385037019       -0.69533021458068
H            0.45523567526150       -0.23995003396423        0.88912569813623
H            0.52853058665901       -1.21909586344294       -0.57348811894889
H            2.59738653961526        0.55699308231639       -2.12833771134705
H            2.70135730056917       -1.19405346869225       -2.00636061168613
H            4.05801580505265       -0.19472429391591       -1.49158233094868
H            1.73481894077099        2.27968731000477       -0.93244985884985
H            2.34348569801615        4.46449298442791       -0.02128401377086
H            3.77873431230635        4.60786419743838        1.97078195575101
H            4.58548965590543        2.55484681726349        3.03379647551439
H            3.51103547237563        0.78236088976632        4.81902607127527
H            5.07715785562405        1.07028252738375        6.68937407016565
H            9.35603481117643        1.39127127682084        5.44475917983125
H           10.91876274453267        1.72247923952043        7.31600134900615
H            6.38981352352704        0.05024248814509        8.20472102399543
H            7.37412945186257       -0.09180028661824       13.00869808551355
H            8.92722895217348        0.29033610473358       14.88087519681534
H           12.36269980789014        2.93943408834952       13.85710128399158
H           13.99308885355353        3.28407430543417       15.66250259463500
H           12.14769404994201        3.27109949434206       18.12582234650839
H           11.71132567094582        5.00673988847023       19.80182948969406
H           13.42594920107235        5.53097874332253       21.48535022171165
H           15.55047870697929        4.32284211058502       21.48197878456133
H           17.52290529264222        4.17845564463521       20.35462777973222
H           17.43163308047326        3.85047250912980       18.62595402610597
H           18.52611951784299        2.91989753875921       19.64584211097478
H           16.54286220981752        2.44432292832170       22.02846220645831
H           17.54017767911081        1.18730926222220       21.31646037532072
H           15.79318307508078        0.97783215154766       21.40315792781205
H           18.47310883000769        0.65902061850985       19.40257239772845
H           18.72579563356413       -1.08255271846354       17.70663293805280
H           16.93003105759662       -1.47646245792876       16.07284278267674
H           14.89148649797160       -0.11970076392815       16.16120166925960
H           12.44881132581189       -0.09929776115319       17.71769338173900
H           10.83113897199719       -0.47003475990133       15.90408998031957
H           11.89234161815684        1.59773004438343       12.10543274897586
H            8.29688426133199       -0.11653935170898        4.16130628043769
H            6.72690454174022       -0.36312707932806        2.28845712177044
H            4.79567315641769       -2.21676123101318        3.41289127518227
H            4.23099198197268       -4.47765471997880        2.65508239467892
H            2.84312205455738       -4.77706894303483        0.64671828469749
H            2.03097067915916       -2.82418085799288       -0.57844815324040
