52
 energy: -10.980409256159 gnorm: 0.000851232598 xtb: 6.6.1 (8d0f1dd)
C            0.83601739137590       -0.10298783319441       -0.19482065486417
C            2.37776583358403       -0.08978635503649       -0.16592543366753
C            2.93636312352739       -0.14368426113810       -1.60169687818194
C            2.84039727545989        1.21930665102200        0.48787638907410
C            2.47101657283738        2.43252846880316       -0.07379833540401
C            2.86936956063200        3.63442184982083        0.47507865838391
C            3.65533415362193        3.64344155566490        1.60606718447514
C            4.03551213974240        2.45312045231103        2.17720193457839
C            3.63882293056328        1.23080836509592        1.63772002452705
N            4.06908235372544        0.02142078993099        2.25053207749469
C            4.95568027066948        0.07832594346737        3.39153269707275
C            4.47300558654395        0.41431773359434        4.65534872174947
C            5.32468826302743        0.50674462716197        5.72830913826951
C            6.69220547486586        0.26529606886975        5.58230913082772
C            7.61244545400568        0.38658210016801        6.73248302062649
C            8.90337593954201        0.88914961819349        6.56812931132489
C            9.75787256275687        1.00602914541195        7.64219449547128
C            9.34479217923617        0.62672731603804        8.90138158042380
C            8.06455039727665        0.12342921631487        9.10045645003516
C            7.63731656083595       -0.26277098261308       10.38125806258466
N            7.27579514594169       -0.58637402000897       11.43695095434046
C            7.21271793554012        0.00806020931652        8.01209560274441
C            7.16831345840378       -0.08329847596902        4.31687525550300
C            6.31813688249136       -0.17508407086138        3.24294789479320
C            3.66566432476518       -1.24019065150359        1.73318365464609
C            4.06613074118329       -2.40707911430395        2.38124069229799
C            3.69291030188324       -3.64530295243584        1.91690061124993
C            2.90761211408527       -3.74055990192307        0.78924392751418
C            2.50023123938356       -2.59420039873217        0.13781825919620
C            2.86232162741199       -1.33421994080671        0.59046707409723
H            0.44070937498717        0.75674606510680       -0.73320139036742
H            0.43866512015284       -0.07608885451979        0.81913576818333
H            0.45458925337846       -0.99888232081388       -0.68174324559074
H            2.60316488250408        0.70961529175356       -2.19015838657290
H            2.61588836401438       -1.04672942370791       -2.11872035170650
H            4.02558763824180       -0.13510149115369       -1.58409858762739
H            1.86197585264235        2.43901857689222       -0.96079041583511
H            2.56832850427346        4.56362595079092        0.01963335269354
H            3.97119640928678        4.57805588733760        2.04007421216427
H            4.65493669405919        2.45739000926097        3.05603608567598
H            3.42060981324058        0.60590782081543        4.77203805744730
H            4.94213377160175        0.78916155003543        6.69363525255799
H            9.22380966344705        1.20420989198036        5.59032350156116
H           10.75141741440482        1.39813093595827        7.49884923546544
H           10.00761176055713        0.71651629958940        9.74513754349586
H            6.22836502856057       -0.39617813871799        8.16485507610614
H            8.21638277658852       -0.29150012242407        4.18990387256433
H            6.69127879377920       -0.43561965731439        2.26792053955580
H            4.67524523509179       -2.32855751817111        3.26399561656113
H            4.01228373156556       -4.53616863180084        2.43262877838503
H            2.61075809050006       -4.70789524766580        0.41822899245070
H            1.88732403220183       -2.68194802588805       -0.74218500835160
