50
 energy: -10.678190214879 gnorm: 0.000791440866 xtb: 6.6.1 (8d0f1dd)
C            0.88916121993000       -0.14487827089541       -0.18838637097158
C            2.43097863907274       -0.11324463809339       -0.19307513195252
C            2.95987864641593       -0.18658651694561       -1.63931660550028
C            2.89241423527262        1.21241285608106        0.42699779222179
C            2.50034091267429        2.41083014294518       -0.15046707370455
C            2.90236627237616        3.62672917672327        0.36305177045183
C            3.71645470668496        3.66540052908345        1.47311382771721
C            4.11824162476438        2.49049666627481        2.06086012484444
C            3.71476071789430        1.25441941916614        1.55920808921177
N            4.15915347579767        0.06124183455060        2.19343971435659
C            5.03155884730596        0.14508702672805        3.34261364981645
C            4.53892626325572        0.54297750370933        4.58457720101929
C            5.37088992035786        0.62787708070399        5.67259997738232
C            6.72789903033033        0.31967597095688        5.56407597667965
C            7.62435237550413        0.42053911069834        6.73183726762951
C            7.21184336711404        0.09944432259097        8.01067117285347
N            7.99132245922737        0.18461581395807        9.06051910586382
C            9.23510444871580        0.60678936436377        8.82733150220676
C           10.09225822295898        0.70529035423937        9.94131224639730
N           10.80176709108462        0.78721428441581       10.86078034716338
N            9.74845759314760        0.94436279965806        7.64318629960166
C            8.93437002363065        0.84499112529652        6.62147662537167
C            7.21569946645231       -0.08184921204659        4.31948257032726
C            6.38533049276347       -0.16803260242192        3.23050200919690
C            3.76225808320845       -1.21433039248099        1.70508972607385
C            4.18099981681024       -2.36482343065143        2.37081970918247
C            3.81705572602785       -3.61511446702820        1.93309618890805
C            3.02148664124652       -3.73975556569464        0.81596537572703
C            2.59311131688104       -2.61010904514290        0.14956266111902
C            2.94548863195028       -1.33805626084210        0.57491517693741
H            0.47205308895969        0.70064748346203       -0.73271660012258
H            0.51292313333863       -0.10498970545762        0.83314605340051
H            0.50854286725153       -1.05366042496078       -0.65148587461541
H            2.60439754532349        0.65225716511965       -2.23525341911284
H            2.63876108130176       -1.10196890023113       -2.13342927142324
H            4.04895430227841       -0.16572049024668       -1.64585272562465
H            1.87071578528975        2.39412699728963       -1.02283671052041
H            2.58297182618745        4.54377721034179       -0.10423682758590
H            4.03706551023755        4.61161110372716        1.87739497349014
H            4.76043012694402        2.51780636685357        2.92270854537270
H            3.49349328276961        0.78174717329138        4.67296678512779
H            4.98237652862866        0.95309275158994        6.62199460293427
H            6.20648960639332       -0.25453061894522        8.17121710376476
H            9.32119984620011        1.12829414193464        5.65598777440827
H            8.25580427140746       -0.34044126468609        4.22348640732648
H            6.76643014767154       -0.47492223789155        2.27221256655885
H            4.79707048351497       -2.26408740665703        3.24625610435995
H            4.15160879693673       -4.49308164287619        2.46098771065841
H            2.73204828128243       -4.71690785609310        0.46569881421260
H            1.96935321922731       -2.72075482546495       -0.72006693874068
