27
 energy: -5.912952193291 gnorm: 0.000671139881 xtb: 6.6.1 (8d0f1dd)
C            0.94358884947747       -0.07438024383611        0.16046725864299
C           -0.27140275288708       -0.02492356995840        0.02821009779961
C           -1.65608548490343        0.03066127217764       -0.12783263467600
C           -2.49900279206643       -1.01186207263891       -0.36022370309064
C           -3.86601653550721       -0.63341023189093       -0.47326993270106
C           -4.06780607435151        0.69315557652549       -0.32786434313689
S           -2.57324690187594        1.51071470046270       -0.04477667941386
C            2.34052635707171       -0.14505040478533        0.30598801022055
N            3.08005615431820        0.85998810626563        0.76548496602318
C            4.33456173914612        0.42626903711867        0.75925250588723
C            4.37907051184121       -0.88426501174205        0.28067723681050
C            5.55479140725495       -1.73490450209607        0.09869049852756
C            5.38910706136308       -3.00950689530596       -0.42844577123538
C            6.47218188120104       -3.83764819101511       -0.62116563021875
C            7.73948081014051       -3.40413746239306       -0.28869191030190
C            7.91986860355482       -2.14090238547315        0.23763700756052
C            6.83811406148025       -1.31062289417391        0.43085343201606
O            3.09677030968391       -1.24466081279376       -0.00534101459302
H           -2.15361393289627       -2.03066769928790       -0.44902516862543
H           -4.66087715396937       -1.34150919597111       -0.65785634364335
H           -5.01807750411405        1.19007891854588       -0.37871770686760
H            5.17511331563357        1.02094107303035        1.08130438113926
H            4.39542304048000       -3.33498705851322       -0.68487257189941
H            6.32982018365432       -4.82329753042771       -1.03269433350554
H            8.58763129619885       -4.05135054585618       -0.44005317698229
H            8.90978711682359       -1.80335098656724        0.49723620811482
H            6.98163643328221       -0.32641098937804        0.84046931812059
