59
 energy: -12.119057478129 gnorm: 0.000942273077 xtb: 6.6.1 (8d0f1dd)
C            0.99960586278143       -0.19820769294815       -0.06458056392939
C            2.53923847166978       -0.11424412686503       -0.08112427006964
C            3.05766571437530       -0.13265221635728       -1.53287400450317
C            2.96110306118987        1.21029382695706        0.56868159516284
C            2.51879255910022        2.40895028011094        0.03000104881497
C            2.86290181433428        3.62282808867493        0.58816321214228
C            3.66295024789129        3.65915017784419        1.70826680552831
C            4.11537027757277        2.48403285326038        2.25696841879785
C            3.78210497232713        1.25022760946388        1.70157607952912
N            4.27538986552232        0.05804801968269        2.29821330508432
C            5.16038575131329        0.15010014721243        3.43751759591003
C            4.68816292016643       -0.09385198116134        4.72698567764341
C            5.52237964937861        0.02792856906111        5.80960546296973
C            6.85242220645063        0.39743275240819        5.63762388342175
C            7.72891107559405        0.54806833670721        6.78903826426521
N            9.00785258475125        0.90877683823228        6.69660293989095
N            9.40549088536584        0.93362710533506        7.93807895820234
C            8.45262503212197        0.60811649992530        8.83694995844109
O            7.34055869495307        0.34786679203421        8.09619502452228
C            8.70788391711116        0.59581332379681       10.25112819005430
C            7.72886740156048        0.25991910536828       11.17273164687234
C            8.01310219679817        0.26352504813492       12.52013604122840
C            9.27959849647064        0.60372641932855       12.96021733376633
C           10.26184218429638        0.93966629400121       12.05744730543526
C            9.99986443469905        0.94359743614823       10.69052240713056
O           10.99186477644569        1.28274262612239        9.80062655144162
B           10.83603413236620        1.32534958533162        8.32746455814635
F           11.69039867773908        0.41173098943552        7.72088974716594
F           11.04921068571420        2.61422591318474        7.85277645160637
C            7.32815016244882        0.63470901439158        4.35119370959339
C            6.49634029340576        0.51281088419247        3.26742645376774
C            3.92345590389791       -1.21709720208297        1.77812952229153
C            4.41670278476112       -2.36803164767053        2.38913350663034
C            4.10582234184605       -3.61808932523032        1.91193527801902
C            3.29317035053652       -3.74175967094663        0.80718531977174
C            2.80075363286699       -2.61158224713586        0.18789945847355
C            3.10118918058684       -1.33997020753331        0.65179986594837
H            0.54986606687909        0.64134741707665       -0.59143154597499
H            0.63119400918595       -0.18783384369971        0.96029282300005
H            0.64594550638395       -1.11155190212388       -0.53936995600310
H            2.66923761200907        0.70859474410126       -2.10406297477488
H            2.76326458281972       -1.04508639402734       -2.04826035083559
H            4.14517770671517       -0.07476431322521       -1.54698529586274
H            1.89155205194920        2.39431380576362       -0.84387062684503
H            2.50529915562232        4.54010956162475        0.15018937682113
H            3.93242878101245        4.60380511512397        2.15119145766026
H            4.73761098885029        2.50917570786636        3.13347384694858
H            3.65606291816226       -0.36782881894648        4.85733804602100
H            5.16174155151998       -0.15230819951158        6.80758513860647
H            6.74773925155697       -0.00209027885640       10.81563851285085
H            7.24818017046954        0.00148812640638       13.23221324535602
H            9.49840186499674        0.60611460965246       14.01531981828752
H           11.25050253062886        1.20671121997406       12.38653617325419
H            8.35820435853817        0.92023162704733        4.22538999365073
H            6.85993082416139        0.69873117606602        2.27213519630523
H            5.05549753297336       -2.26821260120868        3.24816159961674
H            4.49621493727945       -4.49700491021432        2.39798797380765
H            3.04499119781595       -4.71859772922291        0.42595084909781
H            2.17115320006164       -2.72164233808451       -0.67745604015684
