66
 energy: -14.030810028620 gnorm: 0.000619220518 xtb: 6.6.1 (8d0f1dd)
C            0.80876853276403       -0.37233154675766        0.30178798427275
C            2.32521748242365       -0.19668722923245        0.08544235425037
C            2.65922016724923       -0.26713402824209       -1.41826688744500
C            2.73472421743631        1.18631293221579        0.60999818274400
C            2.16281476836814        2.32406636930290        0.06030847106239
C            2.49456742343033        3.58741916572204        0.50609062938480
C            3.41224649273783        3.73596006548166        1.52270449674082
C            3.99127259006232        2.62245846230690        2.08215340737360
C            3.67104431170378        1.34008542968113        1.63953401414477
N            4.29078839689451        0.21423319890706        2.24678757645606
C            5.26153718982072        0.41642719315139        3.29909118173164
C            4.91859296671906        0.19706264273941        4.63264177915065
C            5.84161086867473        0.38997855827077        5.63019515031212
C            7.13445174425735        0.81020004170814        5.32884897300057
C            8.11179119799058        1.01521625691526        6.39401361775359
N            7.84062607382604        0.77856150394570        7.70331217540116
C            8.94363496266179        1.07834957348057        8.34797456956412
C            9.10408806321677        0.99753493169567        9.79688630374310
C           10.12831780845149        1.69588560290278       10.42944958342888
C           10.26614219245600        1.62342149093682       11.78877618697999
C            9.36847767366235        0.85055517124852       12.48539266535737
C            8.37943031238077        0.19824568854964       11.78855474492736
N            8.22216661624771        0.25305016540721       10.47850887555088
N            9.89302415430621        1.48928145129915        7.38843171103592
C           11.28312483583362        1.81329642138562        7.60584826333318
C           11.74927266704861        3.08892307541557        7.32815521458459
C           13.07327040939403        3.40504749502068        7.53911912167936
C           13.94384909054070        2.44795257772360        8.02350445423305
C           13.48851060978231        1.17188030965962        8.29273437487609
C           12.16488567353962        0.85408145824359        8.08263570513739
N            9.35047297815904        1.44807163209323        6.18269550592189
C            7.47730041410118        1.03009960024752        3.99727312738472
C            6.55674544228941        0.83548680211846        2.99771621386929
C            3.98048710349381       -1.10671064276460        1.82332638458589
C            4.61884286241655       -2.18925126118370        2.42623426783521
C            4.35162002762109       -3.48076911929633        2.04046572410043
C            3.43667307919149       -3.71572405424306        1.03791292500347
C            2.79871640857418       -2.65425286385770        0.42861660975007
C            3.05388680094662       -1.34266121343157        0.80066001335212
H            0.24183473451397        0.40503534528824       -0.20798123712560
H            0.56968705795880       -0.32113772831014        1.36344260160822
H            0.46220780723829       -1.33354067836981       -0.07442139719539
H            2.14402760506760        0.51257601477573       -1.97712015503079
H            2.36833249772927       -1.22518124388881       -1.84599034072970
H            3.73006186934404       -0.14071113704991       -1.57431029416834
H            1.44174742070048        2.22107113148192       -0.73173779817919
H            2.03566258015617        4.45543249862031        0.06169133337818
H            3.67397726900449        4.71947006715038        1.87741866522955
H            4.70428455387610        2.73454040229792        2.87931969007104
H            3.91788485602684       -0.12330869722411        4.86418162505275
H            5.58119526860317        0.22102553143516        6.66060990214097
H           10.79829173308707        2.30147457539416        9.84708816080070
H           11.05326584380004        2.15627599543043       12.29718705518477
H            9.43614217636588        0.76115998488352       13.55720234308931
H            7.66755046043852       -0.40813540439691       12.32726095311872
H           11.05940120585791        3.82204978178716        6.94747699410584
H           13.43008426940208        4.39912789853890        7.32424266951779
H           14.97973806155795        2.69589822208116        8.18760560675340
H           14.16870245077879        0.42419112579695        8.66687990155861
H           11.79578414083235       -0.13604742131497        8.28708201514286
H            8.47749579231459        1.35345979746739        3.76733601050855
H            6.82063389334671        1.00074507317852        1.96776896423431
H            5.33529076319404       -2.00206610619327        3.20596148343512
H            4.85502408268792       -4.30491471255313        2.51908602031191
H            3.22114138214469       -4.72559715726279        0.72912863038897
H            2.08719561329630       -2.85077646781310       -0.35423505577219
