90
 energy: -19.280814882065 gnorm: 0.000474100245 xtb: 6.6.1 (8d0f1dd)
C            1.73226192971035       -0.10580718746459       -0.39416344759604
C            3.19804783744822       -0.56421981868849       -0.27290456371000
C            3.70847015184150       -1.07425528142732       -1.63652016603420
C            4.04797322649541        0.64062868265346        0.15000667554069
C            4.16410720268097        1.72973160747373       -0.70062681738856
C            4.92632878958455        2.82997012721122       -0.36702874016194
C            5.59631118144257        2.85848937211450        0.83520559130149
C            5.48386886457124        1.79580299623871        1.69877292011079
C            4.70941220980913        0.68147649705850        1.38272708663020
N            4.62566963119294       -0.40014290007618        2.30423762322503
C            5.30238994551067       -0.29711652478927        3.57655463895103
C            4.84297799086159        0.57908435320604        4.56161005670106
C            5.56244652408837        0.77953751361266        5.71289826902259
C            6.77664751899584        0.11998607810324        5.91475218841115
C            7.67106667243660        0.48581465379468        7.04305417030535
N            7.32749378858893        0.14575912398152        8.27772733760750
C            8.22151926148965        0.45545272083799        9.20786902424277
C            7.92021659431884        0.11514763479376       10.53790439443033
N            7.65162061585522       -0.17627122102600       11.63158312595717
C            9.44128390926823        1.08794855404635        8.90892164461210
C           10.35272309514066        1.37008236213946        9.94104679945014
N           11.12014917043711        1.61221029988143       10.78111828269862
N            9.77653579432783        1.45287613291525        7.67816971648698
C            8.87349374967063        1.16826218748258        6.74995331544805
C            9.11298802791799        1.60190010370086        5.34951084639309
C            8.28258366410647        2.56146916737906        4.76442708741226
C            8.36479911575119        2.83781440979670        3.42544197401998
C            9.27299896715602        2.15644979688330        2.61542288628582
N            9.24646083790170        2.33509586648714        1.18183980086767
C            9.70453720710865        3.55382464537682        0.61101546203426
C           10.21200868411272        4.55251863646385        1.43975941690427
C           10.66437850928509        5.74397510476773        0.92670752986409
C           10.62371743325656        5.95817461779886       -0.43311084545063
C           10.13363812628213        4.97499406732584       -1.26800736218266
C            9.66813772401246        3.76643066119236       -0.77230209877581
C            9.15399834673559        2.69692901297960       -1.74542158373238
C            8.02017824233888        3.30979114669874       -2.59287651271214
C           10.31989247576876        2.26239028898701       -2.65418247958678
C            8.61147565562362        1.45504285843465       -1.02683188002498
C            8.04371397715213        0.42906398082542       -1.76728916988414
C            7.52903085828592       -0.69926945115679       -1.16335975999889
C            7.56970150578471       -0.82003217346552        0.20728310080615
C            8.13919518401714        0.17899685300433        0.95922701566021
C            8.67354719060569        1.32021265872022        0.36478393155475
C           10.14229007651357        1.23833244852412        3.20738935848868
C           10.06924760474160        0.97045610178031        4.55135097626997
C            7.20581135476586       -0.79760261507841        4.95216262721144
C            6.48079616085947       -1.00630316714369        3.80884951907028
C            3.94755544858049       -1.59967288504980        1.95348851878281
C            3.94297898605270       -2.67265080082374        2.84262573820088
C            3.29227899750119       -3.84505248295378        2.54355737410392
C            2.62313817079328       -3.96518090437051        1.34594859260469
C            2.60960821655023       -2.90838808899066        0.45895933224946
C            3.26473500537282       -1.71813189040325        0.73678615075637
H            1.62885283800024        0.70176118582896       -1.11715141287461
H            1.36787949533649        0.25493072470189        0.56693893172757
H            1.08727765185672       -0.92308724307880       -0.71283946066921
H            3.67936000660930       -0.29246735865871       -2.39322482159045
H            3.10687488642700       -1.90391553297478       -2.00309067714448
H            4.73714594181694       -1.41923655948643       -1.54959102671236
H            3.64255968201701        1.72158623646734       -1.64156880935821
H            4.99269899551085        3.66628693181859       -1.04316142267940
H            6.20876424269577        3.70670927509816        1.09238630548046
H            6.02120908924393        1.80475689796186        2.62945764448391
H            3.92626354388045        1.11500313692412        4.38829037026510
H            5.22397219632817        1.48099570873221        6.45576344318575
H            7.55198748914915        3.05859028484535        5.37911595954875
H            7.71012289218344        3.56261762693904        2.97522740349862
H           10.25282718114251        4.37823637839589        2.50000604563330
H           11.05152014963972        6.50522080027676        1.58404977733975
H           10.97830420234553        6.88923038465318       -0.84390036453709
H           10.12037152115002        5.14937441198969       -2.32958170625812
H            8.36791593756474        4.16902323656618       -3.16340739087330
H            7.20648860149352        3.64121094285912       -1.95025790756430
H            7.61608309057197        2.58945580655829       -3.30178905055571
H           10.73067643625594        3.10831871108560       -3.20291170089472
H            9.99902711323958        1.51861135771138       -3.38172044053998
H           11.12142135131119        1.82670589688878       -2.05891022865671
H            8.00695296977680        0.51043568682621       -2.83943900216035
H            7.10088760970674       -1.48539358360919       -1.76301064844974
H            7.14926312664629       -1.68911123876871        0.68541233927911
H            8.15439374942822        0.09930024736428        2.03082501604542
H           10.85392302684584        0.72547402929134        2.58438536544122
H           10.71832769809076        0.23887018956488        5.00071372440065
H            8.13622696839680       -1.31578271520140        5.10891921185601
H            6.82649564656724       -1.69832736813271        3.06170487613687
H            4.45428088440042       -2.57220678300901        3.78304165781178
H            3.30173341960483       -4.66434668160862        3.24366441553438
H            2.10676837106853       -4.87995996827163        1.10532250384910
H            2.06910458321412       -3.00917698785397       -0.46580359306875
