71
 energy: -14.692636879782 gnorm: 0.000427147800 xtb: 6.6.1 (8d0f1dd)
C            1.55058753632131       -0.75210824844621        1.05217504331209
C            3.07284774149958       -0.67192527250062        0.81913936237590
C            3.39261838152686       -0.87848910553622       -0.67481658612475
C            3.55587461518474        0.72591288460297        1.22951929542197
C            3.02553889700143        1.84577958301736        0.60589397337423
C            3.43291370381584        3.12122605924066        0.94178595605213
C            4.38887498926900        3.30043061375860        1.91762013737602
C            4.92862633881569        2.20496193949913        2.54779053260812
C            4.52781798787631        0.91100435419789        2.21968168291373
N            5.10991474343676       -0.19412694776961        2.89933512041175
C            6.13011202931224        0.04592907599709        3.89648466057207
C            5.79026068578913        0.17352230738723        5.24306819600385
C            6.75150790061255        0.45326423239379        6.18103232678777
C            8.08929077346469        0.60171590345473        5.80948460806983
C            9.10907645050681        0.97054484244673        6.79421113233834
N           10.02288243747441        1.90347205696596        6.56133614226551
C           10.70423904768510        2.08141837134980        7.72986572358718
C           11.72937282500961        2.96213959996376        8.10343284305373
C           12.17645153492594        2.93438324431054        9.40165981526378
C           11.63330800176372        2.05444386142272       10.35377116115111
C           10.63129095583148        1.16860381676918       10.02012366328458
C           10.19028172443667        1.20844077312722        8.70050105038823
N            9.19571378587875        0.46249764745282        8.11491879063032
C            8.64539501123781       -0.62047465649164        8.87379163982703
C            7.84351650406077       -1.57323919314130        8.25751410834559
C            7.30328902076407       -2.61529247217466        8.97278038984294
C            7.56452521346428       -2.72334995529917       10.32104199419450
C            8.38630174482201       -1.80326504755996       10.93988963740949
C            8.96175333768658       -0.75316499497066       10.23950036511957
C            9.93513781390190        0.20118528665511       10.98168002310270
C           11.01521006844209       -0.63087857221056       11.69978034940887
C            9.13353534534056        1.02343804290310       12.00435619371257
C            8.42516883758295        0.48252707824898        4.46072526841083
C            7.46446495482413        0.20309156071234        3.52167119930763
C            4.71035488711946       -1.52567772972184        2.60251158380514
C            5.29242997279865       -2.58595723349422        3.29465159949837
C            4.93959438991701       -3.88796965121036        3.03161424782990
C            3.99353559135306       -4.15467137019477        2.06597258058854
C            3.40837056471869       -3.11473056246683        1.37200833186860
C            3.74826126485528       -1.79327159765133        1.62121557669625
H            1.02029828772971        0.01179708128780        0.48569077132472
H            1.32100539563279       -0.60781619805274        2.10741662507789
H            1.15240572022279       -1.71977127185987        0.75093544215502
H            2.91666855626244       -0.11770714709774       -1.29168574872603
H            3.04757070824616       -1.85024999553835       -1.02464910129122
H            4.46770588749651       -0.82304063733381       -0.84286236770868
H            2.27979150616201        1.71902746035319       -0.15945015163881
H            3.00476022101130        3.97485061754857        0.44199758678094
H            4.71175746669822        4.29347807102454        2.18485499053118
H            5.67436052113909        2.34002056715823        3.31092250480104
H            4.75846905686115        0.06511678767453        5.52843821132572
H            6.48134066914400        0.58553266981683        7.21450262930116
H           12.13649817942096        3.64234374259227        7.37703233175284
H           12.95933141252429        3.61085619764884        9.70265634035149
H           11.99671359389187        2.08045162843996       11.36608852959670
H            7.66579855847070       -1.50078323168807        7.20042350212070
H            6.67855499536808       -3.34343921562434        8.48142480327063
H            7.13712711832924       -3.53315914931647       10.88972971502351
H            8.58563342271301       -1.90546109348914       11.99233348723374
H           11.56873197611646       -1.23499867992841       10.98168786108638
H           10.58086904647091       -1.29996579730428       12.44058900415207
H           11.72642756219276        0.01063122563336       12.21804908273259
H            8.37628369374416        1.62254214126139       11.49944634276034
H            9.78359171516925        1.69956381027420       12.55853717235470
H            8.62899469002621        0.37760775853726       12.72185394272787
H            9.45173042828943        0.62193953856302        4.16894792010878
H            7.72295423208483        0.11130254220424        2.48123955435397
H            6.03161604817826       -2.37232590747471        4.04621200777227
H            5.40087122659720       -4.69558495863641        3.57637519948480
H            3.71207492257460       -5.17297576365930        1.85235836661878
H            2.67270557089341       -3.33611331806694        0.61848372449831
