76
 energy: -16.341428811340 gnorm: 0.000467023368 xtb: 6.6.1 (8d0f1dd)
C            0.81913644837206       -0.15200101579187       -0.17080067532426
C            2.33792562395349        0.10546885297156       -0.23978507359580
C            2.78772519140889        0.24121386006662       -1.70844767994710
C            2.64142157652056        1.42283988794233        0.48602549454592
C            2.05286030485776        2.59792082017338        0.04256172951615
C            2.27923995385950        3.80338397353191        0.67483237368448
C            3.10360766873704        3.85342477600365        1.77707533626150
C            3.69921168537457        2.70169338705479        2.23212642832744
C            3.49059483721473        1.47796123168222        1.59804311492144
N            4.13314709905830        0.31019988699031        2.09502328405276
C            5.03116458049355        0.41167148441211        3.22242910414729
C            4.68799227967868       -0.14087714094287        4.45658726192660
C            5.55678322669148       -0.07514231669442        5.51678020530265
C            6.79250629103115        0.55280493321971        5.38143379862920
C            7.72654366358978        0.60854400886744        6.49552675689248
N            7.54551670993972       -0.00702756697998        7.66643849690631
N            8.57361405394988        0.23618938045415        8.41754158323076
C            9.41793774900330        1.01300904792357        7.73479632844969
C           10.69321687531533        1.49326274911097        8.24529529822746
C           11.44702456962920        2.40074661865121        7.50730575554263
C           12.65482908817147        2.85220058257858        7.98107734949646
C           13.14777799000812        2.40263118857405        9.20247099503550
N           14.41586525000630        2.86555997345596        9.69481240012581
C           15.49344285030897        2.05375463452832       10.10423673617422
C           15.63956409708084        0.66725172628718       10.11130456179565
C           16.82307444878209        0.13060474960590       10.55527379990446
C           17.86762688063236        0.95104502511624       10.99169082999961
C           17.74234895837161        2.31920719256374       10.98574745299495
C           16.54566907025338        2.87980902843475       10.53500828604859
C           16.10375757125184        4.24622494301247       10.39238492838912
C           16.71441468522461        5.46799341166975       10.68189943044185
C           16.01352042570672        6.62629648706129       10.44827683642549
C           14.71421623168633        6.58987256816282        9.93336467846823
C           14.10047721035246        5.39597445904418        9.64386347760895
C           14.79883877940916        4.21098180574482        9.87143923179488
C           12.39495823873195        1.49351567548354        9.93954948049051
C           11.18370129282576        1.04831500379097        9.47012758059115
O            8.91136347458005        1.27845130782948        6.49950891346902
C            7.13200215010789        1.11621893082414        4.15494261690454
C            6.26761326174028        1.04436558456923        3.09119141327607
C            3.91859377683569       -0.95570390316878        1.48178892788942
C            4.57922742116858       -2.08068181614170        1.97323657549745
C            4.39389589100103       -3.32132712999545        1.41246024709186
C            3.54259669858034       -3.46220017936412        0.33904681401494
C            2.89042747223068       -2.35680823413889       -0.16784252357500
C            3.06433796023325       -1.09488935644807        0.38113628518965
H            0.25665298792168        0.66472422793191       -0.62019543154353
H            0.49866548762369       -0.25018879810837        0.86573952032331
H            0.54636502735802       -1.06652895943313       -0.69479356163111
H            2.28119784499269        1.06711884750115       -2.20507523880772
H            2.57451417959134       -0.66397902342258       -2.27465197115893
H            3.86030462528831        0.42477390858474       -1.76014088252120
H            1.40170755378014        2.57041617460757       -0.81359471671102
H            1.80975174989554        4.70221443506195        0.30981429103404
H            3.28027447280456        4.79039700759011        2.27950124024489
H            4.33684044699756        2.73779130925494        3.09714040586313
H            3.73162818483656       -0.62296950402760        4.56004875110458
H            5.29726956864500       -0.50918321998299        6.46661640282478
H           11.06515204069852        2.73979894796080        6.55975539823597
H           13.24257779353643        3.54758706770623        7.40787607923223
H           14.83454556521289        0.04393931994277        9.76538863366108
H           16.95029377413654       -0.93937438741507       10.56615309351736
H           18.78529682750334        0.50223674762200       11.33462069790476
H           18.54282482431163        2.95744945892720       11.31564578649115
H           17.71251575687291        5.48667422447968       11.08241515302897
H           16.46970175851004        7.57751090837488       10.66789486343892
H           14.18618616920238        7.51371068122470        9.76351659487177
H           13.09807990856785        5.35841029242478        9.25659509317410
H           12.77304797638664        1.15442732147427       10.88806030091060
H           10.59862437119364        0.34691254110394       10.03909438684461
H            8.08857401071472        1.59961429677344        4.05570570080551
H            6.53465194733902        1.46586330469200        2.13792465814454
H            5.25060569589630       -1.96860009253257        2.80544285733776
H            4.91162380898435       -4.17897961643602        1.80992851699471
H            3.39018282385296       -4.43180831268788       -0.10612120335876
H            2.23467125342151       -2.47806962696557       -1.01224166751760
