85
 energy: -17.659220566988 gnorm: 0.000328611158 xtb: 6.6.1 (8d0f1dd)
C            0.54518347892664       -0.33103035676341        0.11378927442957
C            2.06939080844439       -0.11763406255816        0.01406089438510
C            2.51239070757209       -0.13278266180482       -1.46246551674388
C            2.40965129904520        1.25552408199980        0.60870208627789
C            1.82727861703647        2.39572685487354        0.07494072719656
C            2.09678367074618        3.65047788120001        0.58260072390065
C            2.96194920959850        3.78735951971387        1.64581678401642
C            3.55345002574321        2.67149472647019        2.18770547974034
C            3.29733509618060        1.39811955804399        1.68198127558844
N            3.93455810087302        0.26970640624658        2.26782868211751
C            4.90673335343132        0.46448688675231        3.31943083000664
C            4.60855391232665        0.12644290009315        4.63976004639287
C            5.54595801636568        0.28553696024585        5.62982156726397
C            6.80907242449311        0.79178905926281        5.33250700479381
C            7.81697615371627        0.95397037886689        6.36829646943739
N            7.64843838692777        0.64732013557168        7.65687401918259
N            8.74977760927034        0.91760431556313        8.28719754785123
C            9.62966519651170        1.39880998689993        7.40571265538790
C           10.98400595262516        1.82284034520095        7.72345961989028
C           11.80491690162032        2.32710328316792        6.71904232527363
C           13.07951681065397        2.74740045939216        7.00465011246428
C           13.57509626605531        2.67437885872223        8.30626200502014
N           14.91067445238440        3.13842119446806        8.60589111079402
C           15.08774134027110        4.37448929903517        9.28740789622018
C           13.97107687576730        5.09176274572123        9.71373813891372
C           14.10011026699124        6.29410892507803       10.36643796739477
C           15.35599037986604        6.80767275204382       10.60381931117469
C           16.47168966318188        6.11349914362515       10.18188591717221
C           16.36494578524049        4.89841915098268        9.52129209402225
C           17.63655465845432        4.17700953391048        9.05468156427654
C           18.38762738370891        5.09761166787120        8.07194377099154
C           18.51503278036532        3.88734689779364       10.28847783082708
C           17.33954225174320        2.84871005255955        8.34601190764850
C           18.39002482802068        2.07330589144946        7.87764943784147
C           18.17158099858754        0.86585646507894        7.24591301324042
C           16.88430723439357        0.40695554775437        7.07278560286167
C           15.82826423412126        1.16040757195564        7.52630074153236
C           16.03154702220461        2.38585090652800        8.15866071417485
C           12.75431415129672        2.15981385840675        9.31028233015586
C           11.47831681869397        1.74274585580982        9.02328077578202
O            9.07247115785523        1.43822055538557        6.16459027576064
C            7.10464601095651        1.13921312658525        4.01754012998724
C            6.16983862631998        0.97795402686756        3.02596760563197
C            3.65460522527948       -1.04649614720295        1.80652658818966
C            4.28351240637766       -2.13533514905160        2.40827032457023
C            4.04565523189499       -3.42132086813612        1.98649109514283
C            3.17227376504539       -3.64466833298576        0.94503565334588
C            2.54765753053404       -2.57696666102257        0.33296579307554
C            2.77175229256867       -1.27095748415581        0.74325803337408
H           -0.00158916566560        0.45076218314082       -0.41077668502735
H            0.22904801941733       -0.32089501781344        1.15627554919030
H            0.24744994040282       -1.28508532729752       -0.31803614918726
H            2.02556939083579        0.65777528750276       -2.03134777756364
H            2.27001715322206       -1.08084483416182       -1.94002718658687
H            3.58933506411856        0.01470787782028       -1.53582800313641
H            1.14962800797072        2.30187706099047       -0.75559642678053
H            1.63051550761058        4.52053523312543        0.14990474597906
H            3.17404398769667        4.76384271720543        2.04970820558826
H            4.22603071805177        2.77472658482111        3.02045006947128
H            3.63161174226450       -0.26342470754073        4.86632151177448
H            5.31996784414709        0.01986938238357        6.64779948699067
H           11.41741041631940        2.38509888049309        5.71649501911705
H           13.71267033163329        3.14571070362306        6.23124593495198
H           12.99129348950077        4.69327504625311        9.52081347380096
H           13.22404375880620        6.83246308804636       10.68944641838173
H           15.46646837978516        7.75041895080989       11.11434979297673
H           17.44709371755591        6.52814166974363       10.36747248346536
H           18.64396348307027        6.04896221679677        8.53536829028158
H           17.76885594608992        5.30490108837490        7.19955178922126
H           19.31295574462777        4.63957690042569        7.72627757819380
H           18.77459625417647        4.80368631224472       10.81609034767641
H           19.44469360335098        3.39485772745446       10.00808949330846
H           17.98683491553653        3.23688214790692       10.98472772007937
H           19.40022442427331        2.41945454975164        8.00987835392406
H           19.00555933321306        0.28244886466590        6.89132094836379
H           16.70652629170956       -0.53720976761193        6.58434593407194
H           14.82246591244087        0.80232812847284        7.39732824553563
H           13.13982078929665        2.09748938226288       10.31290509483679
H           10.84179628558461        1.35043072347068        9.79715319416126
H            8.08198316831399        1.53126889685547        3.79452654349557
H            6.39935680020126        1.23752320424605        2.00732274530594
H            4.97143300340514       -1.95860346243507        3.21544757757805
H            4.54045750578879       -4.24975503150789        2.46661952465612
H            2.98067059942889       -4.64999822699951        0.60709290956146
H            1.87478226553747       -2.76368447705162       -0.48565699165169
