57
 energy: -11.876610715184 gnorm: 0.000688832635 xtb: 6.6.1 (8d0f1dd)
C            0.70037614469384       -0.29227356398172        0.04159410218842
C            2.22315271863286       -0.12973689776249       -0.13508358289139
C            2.58724554352441       -0.12840841167257       -1.63357154876322
C            2.64166263326373        1.21769707699489        0.46864922240039
C            2.10637904262821        2.39165436237620       -0.04013339176734
C            2.44531409906287        3.62489414012708        0.47809051998003
C            3.33241973363274        3.70591874120735        1.52858830297305
C            3.87452903706320        2.55559202689322        2.04887606023673
C            3.54751507567809        1.30309707174466        1.53258162070811
N            4.12895905773408        0.13704879168427        2.10145481746373
C            5.03999498991181        0.26390774569594        3.21666717963304
C            4.61965850144079       -0.03389610901497        4.51268823205957
C            5.48587342093070        0.08272361125862        5.57038879051948
C            6.79821813003239        0.50162267780859        5.36697177887654
C            7.72170381923996        0.62746129022562        6.48369082525372
N            7.42127520241650        0.33838437672858        7.74890621900727
N            8.47163064451449        0.56071101688724        8.47240380466782
C            9.45427821000678        0.99507238136572        7.68049374873031
C           10.79893149869518        1.36248895834739        8.09709938317508
C           11.67490736455541        1.86828810704467        7.14744142729092
C           12.95619501213187        2.23959011879950        7.48684237705975
C           13.38722168949529        2.10823775229009        8.79267690223297
C           12.54009529187855        1.60603975708102        9.75325986324790
C           11.23580318343349        1.22266860440448        9.43530341539309
O           10.39495757766438        0.71664108572485       10.40248184829809
O            9.01111847542693        1.05294363651696        6.39486246814493
C            7.21948146171104        0.80017095277570        4.07471576154248
C            6.35509770566135        0.68242292630772        3.01532063343454
C            3.82095337604823       -1.15427155629999        1.59243677678841
C            4.43308448490152       -2.27554335209203        2.14945130561543
C            4.16322892359656       -3.54020004706539        1.68522549722487
C            3.27164078960706       -3.70839552041771        0.64893321127807
C            2.66035023980639       -2.60782452834089        0.08389554072428
C            2.91995366471095       -1.32204009273806        0.53421617722558
H            0.15609214282200        0.51975994071254       -0.43753683744028
H            0.44027330329593       -0.29321967658646        1.09936068594254
H            0.34757077094750       -1.22672680286389       -0.39157887342207
H            2.09745927762182        0.68798396302039       -2.16140795675704
H            2.28882769702163       -1.05729908195445       -2.11648326921887
H            3.66287560457111       -0.01376142881790       -1.76139993818281
H            1.40778983312873        2.34159817972771       -0.85685756638480
H            2.01546124123440        4.52227115222609        0.06413941591358
H            3.59848703888655        4.66552771485743        1.94062194350332
H            4.56349495921807        2.61493103762623        2.87224922067520
H            3.60458140626543       -0.35557551422935        4.66684854676012
H            5.16467218845562       -0.14666607769301        6.57138283973904
H           11.32771045411085        1.96823833414990        6.13315939239036
H           13.62065507996876        2.63414031166160        6.73572597630717
H           14.39018350749734        2.39926651034042        9.05842592219551
H           12.87849077407180        1.50320125939499       10.76891249862096
H           10.85584455048496        0.68330071078809       11.26952550691666
H            8.23516244108623        1.12298133038826        3.92448060114315
H            6.67884863951224        0.90844235090840        2.01446134291266
H            5.13110991457403       -2.13994152120452        2.95609479952011
H            4.64677028974147       -4.39479003431222        2.12929265910760
H            3.05374828232374       -4.69695343184759        0.27931721082734
H            1.96642385942375       -2.75270635719320       -0.72546341101518
