61
 energy: -14.024366459734 gnorm: 0.000753754438 xtb: 6.6.1 (8d0f1dd)
C            1.16232934050503        0.14979303354289       -0.10262076288622
C           -0.04011141235733        0.07680242786485       -0.31946781355846
C           -1.42110336255983       -0.00595540916107       -0.56962420523067
C           -2.07086311648270       -1.22199215705700       -0.69550005461938
C           -3.42236884840494       -1.24556419211528       -0.94069341366452
N           -4.18097543455118       -0.17082252920254       -1.07114129997288
C           -3.55410403023743        0.98671736886962       -0.94972849312812
C           -2.20931625885867        1.12426381269622       -0.70478204130336
C            2.53846849938060        0.22741119427465        0.14766668620319
C            2.95493068492024        0.88692123698090        1.31192938809020
C            3.36209920208811        1.47235541088709        2.30721552264935
C            3.87543352518742        2.15595547553319        3.42450758499918
C            3.07752389692129        2.98227940051103        4.19742445314962
C            3.62247045411977        3.63859094968446        5.27432034617373
N            4.88666203867131        3.54705875049717        5.64899955478777
C            5.64175273771891        2.75927428668316        4.90794099171208
C            5.20215378269136        2.05637910044211        3.81247407925475
C            3.39284182497605       -0.32555305251491       -0.75507609387502
C            4.81900728634953       -0.35983401849049       -0.68104432314496
C            5.61500588654190        0.10016399049948        0.34143000863400
C            6.98499149397747       -0.07154726931052        0.12809721841907
C            7.30692320032982       -0.66869241557331       -1.06974872886681
C            8.60615925673712       -0.97286275181418       -1.58474320118392
C            9.80603800805042       -0.75708028788131       -0.98008293970725
C            9.92569393692427       -0.19191079722946        0.29581625546686
C            9.86110783353249        0.30315091718392        1.41372526281445
C            9.51111169028882        0.86095184097603        2.65692179745048
C            8.89162299489398        0.10264728461991        3.63599712257530
C            8.49121776494390        0.70194509590074        4.80497643096625
N            8.64008106055415        1.98639062615856        5.07823345511624
C            9.24345801160797        2.70184184432328        4.14468045364144
C            9.68435898130396        2.20424794693886        2.94239123390048
C           10.97872291388881       -1.11755421262102       -1.65589329572166
C           12.00646270103574       -1.43310971123234       -2.24087661907623
C           13.19159189282401       -1.79582544947468       -2.90456971999114
C           14.08254949032817       -0.84962853830791       -3.38182741495737
C           15.22743606443556       -1.25915683500216       -4.02122260046398
N           15.56244591075741       -2.52134525692951       -4.22671596092719
C           14.70717989709103       -3.41929298645724       -3.76867435745731
C           13.53566400798479       -3.12002402676614       -3.11652705261462
S            5.83360260663517       -1.02478287053641       -1.93416138018620
H           -1.51008351357832       -2.13595697405384       -0.59990739962040
H           -3.92433588366761       -2.19641962731857       -1.03800206919863
H           -4.16434324246214        1.87112852671803       -1.05458163896902
H           -1.75990363867922        2.09852111939576       -0.61638377054330
H            2.03801923647486        3.10338043268977        3.94483403421002
H            2.99511461886005        4.28201918926460        5.87275292609710
H            6.67498820943374        2.68793170731492        5.21070267581227
H            5.88100615316963        1.43362432815144        3.25686531718610
H            2.95714465236474       -0.78875500905529       -1.62366892101453
H            5.22335272752233        0.55658569292605        1.23217465842206
H            7.71488886723699        0.24639071146972        0.84922231509892
H            8.62614538240268       -1.42118681993565       -2.56328965146912
H            8.72044601991530       -0.94662770077625        3.46624918934351
H            8.00852936417265        0.10610137310041        5.56488555240247
H            9.38150489753642        3.74986527552666        4.36418219813336
H           10.15119014481441        2.84623425858168        2.21522353861081
H           13.86897958119840        0.19674179665481       -3.24596290278327
H           15.91949249603986       -0.51739248936405       -4.39057268970802
H           14.97134172708716       -4.45346932538422       -3.93071551750540
H           12.88207578393308       -3.90082369527957       -2.76707391649005
