83
 energy: -16.927314441438 gnorm: 0.000811723544 xtb: 6.6.1 (8d0f1dd)
C            0.60626349320169       -0.71130384453444        0.88465932076198
C            2.10057984980027       -0.66694519887475        0.50828308449216
C            2.29227956691730       -1.10596048268143       -0.95748431431999
C            2.59507446584797        0.77867983956598        0.65207507897559
C            2.01103646325488        1.78017588712520       -0.10948807295908
C            2.41099162078750        3.09644259722712       -0.00211937190180
C            3.40993310090612        3.43800016479346        0.88245219337065
C            4.00238812562937        2.46237906086571        1.64742519782298
C            3.61596232702112        1.12716527659121        1.54434688304966
N            4.25405650402172        0.14694314881877        2.35282961610232
C            5.28011433266903        0.55393893382070        3.28599067924447
C            5.00978538727445        0.61265980675402        4.65166414490815
C            5.98314291099963        1.02406109138695        5.53452431611882
C            7.22790222750870        1.38209953923483        5.06920354787353
S            8.48102599959118        1.92344022496226        6.23474884565059
O            9.12246013150416        3.17329975082246        5.67528676551457
O            7.89644378477574        1.81274870954112        7.62510943942034
C            9.62226471580192        0.55964072633602        5.99996343588907
C           10.72591745191335        0.72924814953602        5.19553866271533
C           11.60088671562093       -0.31547561611347        4.99934270147521
C           11.37705306733695       -1.54441692127251        5.61632301769093
N           12.29691639261524       -2.64127412568874        5.41795530280416
C           13.56703492666297       -2.61166901389592        6.05576337451130
C           13.89428148167107       -1.54274707355241        6.88810357030298
C           15.11299199011384       -1.47703046806939        7.51935563594323
C           16.03183564068191       -2.48578227542999        7.33174640663538
C           15.71982327969284       -3.55469577059560        6.51676360217321
C           14.49551861845005       -3.64279312315646        5.87073977950034
C           14.19103091833182       -4.86034617612883        4.98748506775488
C           15.23819670933533       -4.91826285785174        3.85734262011961
C           14.27898276733109       -6.12950980614083        5.85840395183172
C           12.79421984071723       -4.80047825407671        4.35409512028561
C           12.37378709240238       -5.82986503228165        3.52491372916696
C           11.13286230803278       -5.81117916128692        2.92168642893239
C           10.28279674713120       -4.74910925446757        3.13742095900079
C           10.67743991874802       -3.71887809304635        3.95658107796248
C           11.92459757342109       -3.72667365716986        4.57864080076589
C           10.25861473719348       -1.69583686643974        6.43359891622429
C            9.38706046190514       -0.64621410658191        6.62075317160213
C            7.51290649217910        1.32820662521535        3.72303576948552
C            6.54788243213270        0.91363437478531        2.83279353293694
C            3.88073236353431       -1.22249059185926        2.27235933178611
C            4.54659320204407       -2.16407415951094        3.05484860519020
C            4.21210390758700       -3.49608072645621        3.00683918005319
C            3.20130722125209       -3.91457216838605        2.16987780311271
C            2.53735805741998       -2.99529260787770        1.38369115674332
C            2.85974229343572       -1.64654943675653        1.41345225513369
H            0.01801335695134       -0.04737614972636        0.25340664371637
H            0.46741887570083       -0.40164814129328        1.91983776279805
H            0.19883425774438       -1.71511352357086        0.77654451875998
H            1.75206823538519       -0.45435232562780       -1.64220260301089
H            1.93377071028142       -2.12114323190479       -1.11900248305018
H            3.34748284775074       -1.07478559559491       -1.22636196387322
H            1.22411953171635        1.52707265536110       -0.79834865893604
H            1.94051704261678        3.85516804086896       -0.60569270731231
H            3.72356188184389        4.46496962503973        0.97517253092410
H            4.77652330410837        2.72833834310179        2.34443960404823
H            4.02896621161596        0.34107183308978        5.00057473147932
H            5.78445869037137        1.08006978593821        6.59227170253272
H           10.89533712215916        1.68784563029451        4.73349594758457
H           12.46711687414143       -0.19754244685635        4.37241782681089
H           13.17326348878025       -0.75932305450035        7.03772435475963
H           15.34807398497353       -0.64100807771989        8.15764557365794
H           16.99038398509405       -2.44102783566463        7.82221746094497
H           16.44433187077387       -4.33872056706490        6.38186760268565
H           16.24935987446555       -4.98690766326039        4.25511771638642
H           15.17987558802074       -4.02201873675241        3.24078630924855
H           15.07921227638291       -5.78061296844293        3.21210824239052
H           15.26212125692626       -6.23074358570971        6.31506391085374
H           14.09445349294392       -7.02782958050982        5.27177757059214
H           13.53949047085109       -6.09197967189384        6.65750486227970
H           13.03058335067416       -6.66291298782878        3.34476449842801
H           10.83149371060854       -6.62353359690351        2.28089304401923
H            9.31442484104960       -4.72603002227914        2.66496681281334
H           10.01850123651997       -2.88570511567256        4.12229556224576
H           10.09303445962595       -2.64163282955247        6.91872681526857
H            8.52456545171398       -0.75049402736400        7.25799136938860
H            8.49042578345135        1.62089721785761        3.37767809981981
H            6.75550057870798        0.86822605347347        1.77812716155011
H            5.33695930137410       -1.83507466536778        3.70537532826539
H            4.73576516160158       -4.20968851645225        3.62177464048662
H            2.93042691891266       -4.95682502339083        2.12780672989574
H            1.75123435769516       -3.33461628133019        0.73194115968701
