82
 energy: -17.144249778335 gnorm: 0.000514976664 xtb: 6.6.1 (8d0f1dd)
C            0.79050518201394        0.02228334943553       -0.15420677627534
C            2.33170455889151       -0.00453925952991       -0.09695446871948
C            2.91695762860795       -0.02932176549757       -1.52309802549634
C            2.81797712770660        1.27088333786484        0.60304819429685
C            2.48147394806663        2.50773163584258        0.07331157389524
C            2.92876962008435        3.68331726347873        0.63998352621829
C            3.73901087894459        3.64019988648533        1.75236041064809
C            4.08485664506024        2.42550164583414        2.29313856903691
C            3.62539165756001        1.22802145593535        1.74656673720760
N            3.99830223349351       -0.01011982177667        2.34220813787864
C            4.86901043512366       -0.02177293877537        3.49210902988392
C            4.47024856639374        0.53905921919119        4.70934496395434
C            5.30921234441551        0.52245590237702        5.79372971964293
C            6.56643478870811       -0.06493022241168        5.71366455012016
C            6.97254767104623       -0.65031868243534        4.50290945583692
C            6.12618943416922       -0.61000529056010        3.41325497154054
C            8.27609227871576       -1.31874329721062        4.38018020574106
O            8.61058128070403       -1.84014546836801        3.33070857946860
C            9.15072658500354       -1.34370125102187        5.55541896191607
C           10.38344442751417       -1.98255309468255        5.49211005829005
C           11.21392663610582       -2.01746603746941        6.58238623641974
C           10.84305701220037       -1.39887910583091        7.78024075333647
N           11.71599424065617       -1.42268820102799        8.92836544779293
C           12.98104039354490       -0.77372579372956        8.86069081928141
C           13.32893980328289       -0.05760408336516        7.71621643166053
C           14.54615524820253        0.56990156073195        7.60595854895270
C           15.44506888508289        0.49800827093748        8.64655708152920
C           15.11048278350574       -0.19177357061009        9.79358898482483
C           13.88472631651674       -0.82640895321968        9.92888185963316
C           13.54961205113968       -1.54665052483475       11.24086616008498
C           14.56756514547946       -2.68556426410036       11.44767932961562
C           13.64776977305881       -0.52858229757234       12.39580225352581
C           12.13944950652218       -2.15062989243104       11.24112911171635
C           11.68085644595354       -2.80659311148131       12.37382815954649
C           10.43352502132177       -3.39454260238365       12.41434004170798
C            9.61903231498404       -3.34479837881452       11.30541324486560
C           10.05444188252436       -2.70220062537284       10.17191005103665
C           11.30407016783716       -2.08597835849463       10.11890475531014
C            9.61123025199520       -0.75727855821304        7.84190523159214
C            8.75791599226576       -0.73089485363963        6.75703880334028
C            7.44796338111885       -0.07568386205061        6.88408899785483
O            7.10865443309810        0.43585925445226        7.93684837935651
C            3.54823307489847       -1.24385553809517        1.79273964237228
C            3.87337599339108       -2.44212542033836        2.42719421715991
C            3.46918383469692       -3.65384063874502        1.92149608779713
C            2.72091610208203       -3.69299289756807        0.76634996708955
C            2.37576609374553       -2.51633553594117        0.13418088000845
C            2.76926461732394       -1.28222376815563        0.62986138809679
H            0.42582657910037        0.90566255341505       -0.67532842371312
H            0.37484772734247        0.03049405944888        0.85264367449735
H            0.39641689923366       -0.84989007831504       -0.67297310752438
H            2.61291842874907        0.84771984339639       -2.09208452920715
H            2.58852829120338       -0.91003655826562       -2.07240379243833
H            4.00554102399092       -0.04401444759276       -1.48438847464995
H            1.86380922831753        2.55381601645717       -0.80649823538965
H            2.65218076691627        4.63182398034087        0.20958722887901
H            4.10150636578061        4.55340876967481        2.19536183051523
H            4.73270884339620        2.39411151602593        3.15020494171503
H            3.49096238656204        0.97878820482395        4.78167197831603
H            5.00913492846858        0.95929823974940        6.73086949134656
H            6.45130760885294       -1.05010123189321        2.48814951043410
H           10.66722785542450       -2.45338841208798        4.56642130684624
H           12.16164398047532       -2.52437277661933        6.53309335479944
H           12.62273484969367        0.01000058218480        6.90839176549137
H           14.79582699152289        1.11487057927967        6.71027316597442
H           16.40360129395133        0.98415253630418        8.56734364413271
H           15.81845747707446       -0.23516888230680       10.60267015399532
H           15.58768785122312       -2.30621275723325       11.47565120975924
H           14.49902874624546       -3.40641028415939       10.63381387052382
H           14.38574536378586       -3.21509692422914       12.38148004321137
H           14.64135620040570       -0.08772828299911       12.45471928232566
H           13.43924599038910       -0.99431340978241       13.35731026972227
H           12.93034583680916        0.27812165183448       12.25045134677365
H           12.31447761756566       -2.86547708838032       13.24143633288672
H           10.09965544054657       -3.89539010726768       13.30825223808769
H            8.64540606613048       -3.80656556934857       11.32627979560606
H            9.42140952602591       -2.67756223842258        9.30358838899440
H            9.30779656107729       -0.27121796824118        8.75124465502369
H            4.44890646093669       -2.41335988481445        3.33484827903536
H            3.73863767007343       -4.56773923761772        2.42525637902549
H            2.40282108573394       -4.63937496252017        0.36067941634561
H            1.78609336223754       -2.55949224764965       -0.76477823193505
