102
 energy: -21.388241752540 gnorm: 0.000836224063 xtb: 6.6.1 (8d0f1dd)
C            1.76671343418450       -2.22070202829033       -0.80062107921436
C            2.94894533654626       -1.85539604755386        0.12270747473333
C            4.28535870387139       -2.10876849664310       -0.59891152242547
C            2.87363068475180       -0.36106553350889        0.46507011208902
C            2.69252784605098        0.58283004209924       -0.53463937425036
C            2.69545910732978        1.93574629085576       -0.25957398758738
C            2.89197082904866        2.37448022532841        1.03158884640227
C            3.08881592666940        1.45811785175438        2.03577988714333
C            3.08663616407800        0.08974598446441        1.77244035547543
N            3.39742454526646       -0.81954772954586        2.82655304829788
C            4.42438649898820       -0.39805918912308        3.75161475490629
C            4.18751216400386       -0.19914696469796        5.11686291679101
C            5.16656417889246        0.31785184549867        5.93663888986356
C            6.40381581730116        0.65084642205576        5.39034724558781
C            6.64589861860115        0.44258869820891        4.02916630631591
C            5.67183512316118       -0.07992528954974        3.22148271306451
C            8.03468806073170        0.95444559557466        3.65106546210602
C            8.54906198509828        1.47949197339173        4.99719310932876
C            9.74438184220958        2.08501887841696        5.29517102365200
C            9.99167417992852        2.50715013840544        6.60178204202286
N           11.23471509924934        3.17312735637068        6.91700203216666
C           12.42965850349217        2.41177879963154        7.03268304973333
C           12.38018351909206        1.02823059351928        6.87275779691035
C           13.51134160199311        0.25655602537588        6.98447379802593
C           14.71919455993429        0.85674446098366        7.26441694605898
C           14.78379907505339        2.22558751653019        7.42844644147793
C           13.65607794000776        3.02478014383228        7.31472827303554
C           13.77943822049613        4.54317016282555        7.50316002864178
C           14.27148770745040        4.82008526438416        8.93690763844734
C           14.79889668048396        5.08087296364220        6.47785065547087
C           12.44780893837815        5.27767206674580        7.29612423269726
C           12.40677400525073        6.66135412246309        7.38098254242331
C           11.23458449213942        7.36307970898511        7.18520893579346
C           10.06991627126522        6.68540276689629        6.89922921145472
C           10.08591670054463        5.31406798989015        6.81733024974022
C           11.26054310747911        4.59103337537145        7.01681936668216
C            9.01936982879120        2.30188939196634        7.58820341009725
C            7.82046576753297        1.69539029239368        7.29321961515558
C            7.58003240240894        1.28053775215480        5.98787654732748
C            8.91500439506425       -0.19667490476072        3.15416594326372
C            9.64513601893509       -0.94714240182676        4.06712952265714
C           10.42705811152994       -2.00821615020960        3.66157418590616
C           10.48427427660327       -2.35029224591910        2.32834384749753
C            9.74779988726612       -1.62912131266250        1.41166905412535
C            8.97009145226853       -0.57170010028857        1.82157799027210
S            8.04518203573278        0.26772202010149        0.54117617957127
O            8.94759210794304        0.40660840933898       -0.66716446422221
O            6.68584755878654       -0.38223675708166        0.41304087761334
C            7.86329838208253        1.88883317831192        1.27460192420423
C            7.67608433755672        2.93137661190453        0.39773618976159
C            7.50844739572920        4.21710494615586        0.86837898532030
C            7.52279241821711        4.44824634467375        2.22635889922978
C            7.71036168277736        3.39885033524682        3.10115154843930
C            7.89986184120021        2.10106805238613        2.64338315223509
C            3.12942987628334       -2.20962394665574        2.65347412603525
C            3.15151472096873       -3.05778199479742        3.75786434895861
C            2.94160863608241       -4.40839897094390        3.61939627339555
C            2.72105721519023       -4.93796474303427        2.36673713189275
C            2.71062064699185       -4.11076403531167        1.26156507120337
C            2.90070508023105       -2.74213717132244        1.37783957033965
H            1.76909583840420       -1.62524934625625       -1.71131259192305
H            0.81966731351785       -2.05096626753516       -0.28979144036277
H            1.80267660653268       -3.26417577233583       -1.10681191690017
H            4.35087575392865       -1.52971359465250       -1.51874057466591
H            4.40491889244701       -3.16155869276859       -0.85014560751054
H            5.12131481599648       -1.81269965584586        0.03473424729780
H            2.57766370608946        0.25895216883951       -1.55379032494371
H            2.55684471473934        2.64887497425983       -1.05560137013597
H            2.90514072722812        3.42969627416210        1.25026320410398
H            3.26498361621985        1.78916050608209        3.04423102653760
H            3.21187541798001       -0.42316977621269        5.51037023425578
H            4.98136496075840        0.48998814198839        6.98223974282749
H            5.85130235580221       -0.21981956023474        2.17276188462144
H           10.48062539682659        2.24400168423535        4.52937784748444
H           11.43498535567612        0.56325101430346        6.65736499085253
H           13.45375870161901       -0.81176757848543        6.85432254429260
H           15.61118485624791        0.25881505372894        7.35533598340717
H           15.73227096443860        2.68167769540785        7.65230307609572
H           15.22874897535050        4.33762919459751        9.12790266000392
H           13.55322301825302        4.44149133981225        9.66329873910656
H           14.39686006088070        5.88720933031412        9.11354003486417
H           15.77155727650504        4.60660350667109        6.59659376981287
H           14.94350930687346        6.15458109464943        6.58446705333980
H           14.45275253802903        4.88737952044035        5.46317853881813
H           13.30953897049830        7.20231549370635        7.60475490090308
H           11.23069032657242        8.43863697846043        7.25311263591750
H            9.15204375055744        7.22764374516756        6.74096158397017
H            9.17966936561771        4.78134347968055        6.59111802486863
H            9.22948810351109        2.63364205123813        8.58966722172292
H            7.07163048783904        1.54301165373756        8.05035015763753
H            9.59242319261397       -0.69436467640644        5.11155122539655
H           10.99197075868687       -2.57032227661952        4.38710962638803
H           11.09459651913773       -3.17710632871375        2.00397226372225
H            9.77378255865846       -1.88141100187824        0.36347553790536
H            7.66471950193396        2.72667930039630       -0.66101739459177
H            7.36299232388451        5.03238571333956        0.17882454694900
H            7.38464328598228        5.44774022430111        2.60500841704456
H            7.70316173993759        3.58327914706733        4.16114929724469
H            3.34144922634324       -2.63962861133026        4.72972726387355
H            2.95778481978729       -5.05108597809255        4.48441156526892
H            2.56684016098979       -5.99808066861513        2.24913047534272
H            2.57480019190038       -4.54583808496612        0.28742154581084
