90
 energy: -18.074548561734 gnorm: 0.000490695949 xtb: 6.6.1 (8d0f1dd)
C            0.50970059921688        0.32196160211829       -0.06641310109059
C            2.03515328575056        0.12738162446534       -0.17597232249371
C            2.44387597474135       -0.05304738845479       -1.65231962468589
C            2.72719153480338        1.38414576494174        0.36855830079667
C            2.49843900975336        2.60903249200705       -0.24081270699900
C            3.11874117990540        3.76113507050663        0.19771142637796
C            3.99052866006866        3.70702179720761        1.26278603082914
C            4.22862583859168        2.50454503060682        1.88382584171822
C            3.60302253029072        1.33342068676286        1.45975648849202
N            3.87728050568289        0.10868734675802        2.12761182337417
C            4.77729565824741        0.09794810292212        3.25691362267673
C            4.41716967157910        0.66176806297949        4.47368469944316
C            5.28301181651762        0.62678185902299        5.54289748119743
C            6.53799137072827        0.02545342237936        5.45806395191020
C            6.87881704847713       -0.53902718137294        4.23714562613632
C            6.02968381414916       -0.49900026052050        3.16108078717821
S            8.40836895395438       -1.37820116169833        3.88941063829606
O            9.17048956893837       -0.55557021050417        2.87105651891652
O            8.07009898173036       -2.83798851972782        3.66485589722702
C            9.28974636299214       -1.25871644474653        5.43004715135521
C           10.52605398099355       -1.85075394168421        5.39078967947187
C           11.36106461076332       -1.84293552102132        6.50275002957071
N           12.66348676064764       -2.46503409877313        6.44988188277195
C           13.68898399500180       -1.87702234595747        5.66012524843009
C           13.43514893668828       -0.69133935018885        4.97235203683222
C           14.40101669585596       -0.09254995316662        4.20000836240649
C           15.64866880935738       -0.66818260811135        4.10404697607582
C           15.91830579756177       -1.83850809223485        4.78390201092294
C           14.95763589714945       -2.46195032771966        5.56647592781683
C           15.30972893275576       -3.75963780401866        6.30630180000469
C           15.75290455773450       -4.80923566176203        5.26617331064608
C           16.46056667686080       -3.46620703880745        7.28899130762628
C           14.12648007112013       -4.33119504271634        7.09895913737084
C           14.27803464990659       -5.52436708050120        7.78987052825579
C           13.23489059663696       -6.08757037972449        8.49641400382314
C           12.00833173180913       -5.46129869732033        8.52327514293150
C           11.83755981157445       -4.27574646200521        7.84989114274077
C           12.88273140990869       -3.68952795736097        7.13810070681718
C           10.90223490394956       -1.22125452945597        7.65644051241959
C            9.65580490263134       -0.63843213673541        7.68667130786963
C            8.81290605343505       -0.63837899581530        6.57608093430972
C            7.43306728871041        0.03518949235653        6.71302845456189
C            7.66972644593155        1.50905887529299        7.10292592905881
C            6.66932017550242       -0.69682314420713        7.83568485670898
C            3.29939193673992       -1.11199850090367        1.68259621254924
C            3.59851483160406       -2.30031679923044        2.34755819734789
C            3.05718485575837       -3.49865730197351        1.94905501120147
C            2.19641012645638       -3.53190808751774        0.87440442503237
C            1.88429540686133       -2.36376871974658        0.20919107618663
C            2.42083431724449       -1.14352237814251        0.59284131233040
H            0.18094104226232        1.20298976865143       -0.61526960342827
H            0.21779655103252        0.44716933544823        0.97567589222973
H           -0.02973255743704       -0.53540902313987       -0.46574533391274
H            2.16394605491178        0.81183693186447       -2.25143585951386
H            1.96747333584027       -0.92671174239828       -2.09392571396553
H            3.52260644352102       -0.18251416646442       -1.73261370298907
H            1.82445596749218        2.66353226324016       -1.07767678042144
H            2.92622502371061        4.70006523875543       -0.29532350768195
H            4.48462957756846        4.60124247152299        1.60572258988082
H            4.91769988004878        2.45754605685797        2.70795848098790
H            3.44817760238364        1.12058229026462        4.56544419758376
H            4.97463674926263        1.07422810330923        6.47137346036794
H            6.33299393665764       -0.94283378662674        2.22725223376129
H           10.85845104316908       -2.32950419950340        4.48454847033397
H           12.46072857529619       -0.24292895553375        5.04783908621396
H           14.18257166445512        0.82024224169671        3.67041561330469
H           16.41184088800216       -0.20591749597220        3.49941534022118
H           16.89837954124630       -2.27526587044281        4.70488384708191
H           16.60573052328066       -4.46058353616970        4.68623889903165
H           14.93956494949491       -5.02114134568445        4.57305518693232
H           16.04088037222617       -5.74510524669420        5.74205347201311
H           17.33649219007422       -3.07980098292179        6.77030249174485
H           16.76326506707444       -4.36428124234688        7.82514261978453
H           16.15090350268131       -2.72432679930461        8.02422580874517
H           15.23000845479458       -6.02538091138677        7.77352256922150
H           13.37768840414844       -7.01801364054853        9.02140568528670
H           11.18726682493629       -5.89912381119690        9.06689976277874
H           10.87833848878903       -3.78993718256022        7.86031957506226
H           11.53912285573955       -1.20359740726838        8.52357653224032
H            9.32703341474878       -0.17010147083260        8.59768593903318
H            8.21052074225079        2.02582770595018        6.31080086718351
H            8.25379781421233        1.59400378251522        8.01746957231696
H            6.73154892868492        2.03628733071066        7.26637400005983
H            6.50109162544232       -1.73733121952424        7.55989409888197
H            5.69971263284929       -0.23992219164026        8.02535691690558
H            7.22444873844447       -0.68439121732646        8.77197998940209
H            4.27037175592855       -2.27449418639294        3.18661602268959
H            3.30719655212191       -4.40680260330673        2.47266761283883
H            1.76814420373249       -4.46778589162179        0.55435631326436
H            1.20754310566937       -2.40266450049792       -0.62629864021957
