88
 energy: -18.612047995003 gnorm: 0.000429994743 xtb: 6.6.1 (8d0f1dd)
C            0.50140797524899        0.09265820269015        1.22239354102333
C            1.75448381043758       -0.78775007985048        1.40275787004044
C            1.37594783995700       -2.27850988702500        1.29590945699388
C            2.74814106609062       -0.45835900090724        0.28060479926376
C            2.36570035733884       -0.62886017850918       -1.04184217785611
C            3.23226230904552       -0.37055243301753       -2.08453603029493
C            4.51321323652034        0.06079462213368       -1.81834492808166
C            4.91324877164350        0.23692959729275       -0.51542057564875
C            4.04624464303206       -0.00615014193564        0.54928742048448
N            4.49210566413318        0.19813396671423        1.88338873349387
C            5.85364504498702        0.61853115950150        2.12537519840466
C            6.26569721696468        1.91991875566779        1.78031426409008
C            7.55240135003333        2.34932939310573        1.98946914697456
C            8.46395357478793        1.47407343825501        2.57058373263229
C            8.05796673084333        0.16185768164590        2.94260780750355
C            6.75459303994376       -0.26006478963932        2.70747601321880
C            9.19493360770186       -0.51140569418716        3.55749092941791
C            9.55145486362725       -1.70418975295918        4.17839730423585
C           10.86114304721814       -1.86592677177364        4.67370691831821
N           11.19898226690794       -3.08848755052448        5.36717120159608
C           11.44016691840390       -4.27424656740870        4.62547244587875
C           11.34098516184636       -4.25064927534815        3.23516074914506
C           11.56756038506921       -5.37949651825073        2.48478442811969
C           11.90310708602575       -6.55880301206319        3.11345395440756
C           12.01074743826195       -6.59673213412391        4.48912321941351
C           11.78432852258337       -5.47079577068214        5.26675347592901
C           11.92850858763591       -5.56119851178260        6.79248117719516
C           10.95492211966125       -6.63763027093351        7.31384358640000
C           13.38153940887343       -5.95514645789915        7.12260362243276
C           11.61238791605643       -4.23585802448486        7.49903549609062
C           11.67015891481423       -4.16539222171333        8.88310648114109
C           11.38525775225738       -2.99657322832685        9.56011482749831
C           11.03240958781869       -1.86587535338443        8.85625346461368
C           10.97244174702599       -1.91184336769113        7.48417863214401
C           11.26348314676852       -3.08277826959389        6.78539189046668
C           11.83750920502264       -0.85662288227066        4.55734475780448
C           11.50935530498706        0.35149046010994        3.94723773686941
C           12.06558719151616        1.65818702559324        3.62060337408586
C           13.33141563845387        2.20645057279562        3.82454062706308
C           13.56622846791963        3.49705250990906        3.41166163344905
C           12.56368598305989        4.25450786944307        2.80089159195758
C           11.30701854966031        3.73662707603826        2.59154193865996
C           11.04535639423187        2.43302793850341        2.99921158469822
N            9.84332907732480        1.66236165662979        2.91199937629905
C           10.20072293620378        0.44794462114513        3.48303090677313
C            3.63223487227338       -0.04708840977021        2.98810546503627
C            4.08597794339156        0.19516432489677        4.28426321733358
C            3.29092702176977       -0.05058589061545        5.37791661850381
C            2.01671876373191       -0.54176547767911        5.19638279770026
C            1.54747634555081       -0.77439257590044        3.91940380765977
C            2.33145041890536       -0.53103567006269        2.80120147165650
H            0.03235504741697       -0.07562347895699        0.25427021701531
H            0.76712556465655        1.14723639537267        1.28863143779822
H           -0.24407467973493       -0.11431076114467        1.98863474248561
H            0.94232072779297       -2.50954974446286        0.32407723314763
H            0.64927486921209       -2.56021970629288        2.05639635580027
H            2.25892917921432       -2.90333825756286        1.42669285941982
H            1.37077790380719       -0.97500189797001       -1.26188068712356
H            2.90968921517962       -0.51019081085874       -3.10348748224650
H            5.19762926771647        0.25874720112547       -2.62728135317680
H            5.91568695320884        0.56489636748185       -0.30697886859384
H            5.53972323356185        2.58234014615489        1.34204759967158
H            7.86519790960160        3.34259890704816        1.72096386784174
H            6.44555142306808       -1.25264120643535        2.97695607265934
H            8.83140405983239       -2.49179791080738        4.29737944473566
H           11.08303914335247       -3.32737519398772        2.74772750054419
H           11.48372621334469       -5.34261235923291        1.41075488838213
H           12.08301472348365       -7.44860471667196        2.53232273237326
H           12.28035989723650       -7.52202301364216        4.96792024922530
H           11.15441908550580       -7.60788939519910        6.86177275485868
H            9.92670637417809       -6.36308887493202        7.08038234112493
H           11.03366893653199       -6.75668180392989        8.39332250056739
H           13.65048889318743       -6.90370110535703        6.66019875572405
H           13.53137693633484       -6.05639991149981        8.19647994652627
H           14.07176077686190       -5.19540844214768        6.75713527674555
H           11.94458463106668       -5.04173385350404        9.44419433176297
H           11.43725061272592       -2.96850978580853       10.63636893760999
H           10.80592380211099       -0.95048214995030        9.37850233675512
H           10.69502895085664       -1.03167547670908        6.93197891195655
H           12.82212303069016       -1.01463097523204        4.95549459240724
H           14.09884792074737        1.61895127810199        4.29709140380857
H           14.54042895849196        3.93280081770866        3.56183930503274
H           12.77954216319321        5.26338473284015        2.48915063984822
H           10.52955688566354        4.31413382911421        2.12373875412264
H            5.07855770112021        0.58430693029821        4.42449966279202
H            3.66261346935253        0.13815942150839        6.37198462428499
H            1.38765910554398       -0.74087608710768        6.04871712309714
H            0.54852589029489       -1.15314380908703        3.79003600863059
