88
 energy: -10.917129469094 gnorm: 0.020613623236 xtb: 6.6.1 (8d0f1dd)
C            1.59914896272365       -0.38436310048372        0.40480745050816
C            2.86883220431124        0.07764971591419       -0.15140589169131
C            3.01965432356056       -0.08527488233549       -1.53096383381035
C            3.42636055699958        1.33004165066940        0.43575658949922
C            3.39128651339070        2.50680389694472       -0.23454492340210
C            3.91493310829747        3.60744718589383        0.27716490408964
C            4.49079821157795        3.59226435015550        1.46675771132887
C            4.55533665917715        2.48239355128535        2.17406202325937
C            4.03625885271393        1.31086128217232        1.70409558786547
N            4.10662109109249        0.14235567558897        2.43538150879673
C            5.06943243954770       -0.11687721618945        3.39827953237291
C            4.75411804934575       -0.76684260982860        4.56791870777910
C            5.66049601156478       -1.00886519338740        5.48674952716359
C            6.92684486614936       -0.63980264785851        5.31707076542136
C            7.29923447174402        0.00431372483145        4.16703318089418
C            6.35874946355174        0.25656545079065        3.21357700973469
C            8.66747648820246        0.31169773294322        4.02357081209560
C            9.65888095538325        0.20160464873217        4.88620423092100
C           10.99843151973240        0.33064308634590        4.65725060550594
N           11.86909805261566        0.48304627706732        5.80621638770019
C           12.74192582026711        1.60542660092096        5.90268707575384
C           12.89625694861973        2.47175797542834        4.86097438827781
C           13.70693472227874        3.50683884693424        4.93147116997937
C           14.40164648920221        3.74290839896619        6.02900975957244
C           14.29007991283835        2.94731356073403        7.07802682539086
C           13.47288443769134        1.86455755267158        7.07278138219360
C           13.33220983061170        0.99855277914471        8.33957818520344
C           14.64954578636886        0.61664479178257        8.78975864392387
C           12.65503836520090        1.77343823129289        9.35354372814662
C           12.50971823443194       -0.27568981219759        8.06291806335140
C           12.41116621926993       -1.24000931513911        9.01066201876794
C           11.70519385302129       -2.33989019661417        8.81694270883950
C           11.06865669041147       -2.53686881553664        7.67669582342335
C           11.11892702643359       -1.63783505109182        6.71601615003133
C           11.82069725554768       -0.47600661183102        6.85715818064546
C           11.55144832865022        0.38657863222261        3.40772343803949
C           11.08626144261652        0.12596247869269        2.19080721471334
C           10.01650211277847       -0.63245486367831        1.80016638704316
C            9.12395470097742       -0.35385466622601        0.83976223776876
N            9.00860022715580        0.72661779927071        0.14105466275897
C            8.12983902983625        1.03382481079981       -0.77908346837915
C            7.10145415113355        0.34726062694480       -1.25600108360338
N            6.27460864193614        0.67091221891734       -2.16185937307504
C            3.42846875887974       -2.96078682619209        0.59611906529437
C            3.73947219998935       -3.41670343831840       -0.52439340661312
N            2.87519546285900       -5.05390604997180       -3.93255000053372
N            6.07736836619073       -3.09085254463181        1.88174013935070
C            7.31125078161801       -3.16310192408869        2.03384333283367
C            1.47380916866265       -2.63486344506957        3.95195498168126
C            2.04677478162795       -3.41941262615255        4.78919170945029
C            3.26951582031919       -3.78696760504827        4.79111597456802
C            3.22848217345590       -4.73972720256402        1.93909197963083
C            1.44435225318611       -1.67501292524653        0.14979571385989
C            1.60114940134335       -0.30823927438425        1.72586349489757
H           -1.14059966687246        0.87151427951659       -1.32895128928617
H           -1.60859046199107        0.47141651372454        1.08490792231401
H           -0.48714170403696       -1.21512765387934       -2.27343821921608
H            2.60044185086431        2.19527768041066       -3.36396644060568
H            2.78927710398694       -2.27799402855821       -3.21779968863371
H            3.78777196825266       -1.62984381126137        1.49123686610673
H            0.73452222791027        2.79087490918268       -1.59063492445706
H            2.01628738583067        5.45456089996135       -0.84823165461957
H            4.06220211567370        6.47498631449320        1.83543162646704
H            5.16089897045057        5.48860748313931        4.23414620160975
H            2.44379937993147        0.10465568175152        4.41221438947094
H            5.81495212544859       -3.42302986456028        6.02467430544799
H            5.74938467133796       -0.26160728889467        0.73552402394235
H            9.24455011551071        0.47532026629695        7.68340498328693
H            9.16488871131031        2.56347458466976        2.54206244469272
H           12.43873748536822        2.72529408366842        2.01775570368389
H           15.84692169108772        5.20027035730574        3.76103246463930
H           16.37862416720084        3.81047525753660        8.06616731209978
H           17.37636357699149        1.29869421880550        7.36608107997134
H           15.71895166816756       -1.50485795830759        6.60735842902968
H           16.88393999970866       -0.34341582581475       10.73507379778949
H           13.72006634633790        5.22546403166290        8.68082735241586
H           15.28827047308037        2.72996223036399       10.73340517462323
H           11.06247315680044        3.54596755075999        7.04072157180951
H           13.80213431830948        0.08066166197428       11.55897617281121
H           11.61922165393990       -2.58845264354146       11.29263989298386
H            9.27727674801718       -4.02240787338275        9.56997767149637
H            8.96126238305476       -2.69658910380761        5.09530586148365
H           13.69181210285770       -0.82573236026001        4.95395516121880
H           10.90347543067864       -3.21564725639558        2.45929823720741
H            5.42170760160612       -3.02216015721475        2.65498730377103
H            2.60825602502292       -7.29878988472566        3.59337901662418
H            3.54250017645546       -6.11136367355868       -1.05003762997961
H            1.24196800556758       -3.98238330194466       -1.50293411229111
