92
 energy: -19.493752689516 gnorm: 0.000490150251 xtb: 6.6.1 (8d0f1dd)
C            1.65665162066033       -2.19444869264647        4.94432289585023
C            2.65197174396297       -1.34967609153907        4.12486890696480
C            3.32819120860795       -2.24645802332800        3.07460315801313
C            1.92804422691195       -0.20176163049877        3.39597584865149
C            0.57526335825553       -0.21962650205396        3.09940169005584
C           -0.02235553177115        0.83353944599619        2.43390474427237
C            0.72587033727406        1.92869617400886        2.05370848796694
C            2.07203289553288        1.96537967086490        2.32898269414285
C            2.68789956029524        0.90195043448160        2.98312736430330
N            4.08748122231900        0.92537955360443        3.29532562440435
C            5.07761664149532        0.96583315395100        2.26130210122007
C            4.75421075475441        1.19555189276394        0.91901117325603
C            5.70833201207159        1.10047884823543       -0.06014416797579
C            7.03310814641918        0.77120683226156        0.24363826361691
C            7.38205530951613        0.56284417765487        1.59019857512554
C            6.39122776363377        0.64855391015242        2.56045916635388
C            8.74682993326015        0.20192069468658        1.93810604611041
C            9.14786983829291        0.07078233887871        3.26310547513821
C           10.41616201949969       -0.36396012679432        3.60757937677635
N           10.74706622357147       -0.51519938812193        5.00387237512031
C           11.76969585632194        0.28727132871705        5.58781942027887
C           12.57357468111195        1.08979703558855        4.77847322078262
C           13.57428619629326        1.86938348547754        5.30684946039906
C           13.78885870650653        1.87185701796126        6.66688678796396
C           12.98723912489972        1.10426230324389        7.48629046560446
C           11.96911505335593        0.31285567670362        6.97461527034512
C           11.06701693017401       -0.46444603811259        7.94191635117023
C           11.94484959449842       -1.42387069845357        8.77057868854618
C           10.36266545336396        0.54720819364648        8.86873721807234
C            9.99497817410935       -1.28882818341744        7.21971937855901
C            9.09804487566486       -2.04132187885874        7.96402589399970
C            8.12997622106812       -2.81822440111996        7.36156360327218
C            8.05177547612363       -2.86712258197839        5.98777909827027
C            8.93192606361939       -2.13099807684336        5.23177069011136
C            9.89806305532695       -1.31588189115574        5.82311557667871
C           11.32020592147849       -0.66219056299892        2.58145788125533
C           10.96446053041471       -0.48613904078317        1.27049121407090
C            9.68452152070070       -0.04517621698097        0.91714808985319
C            9.33275605004122        0.16027525427125       -0.47792202495667
N           10.26401194610621       -0.05733648963301       -1.38876792967041
C            9.88415591460284        0.16487980447292       -2.65999523067578
C           10.81312479974651       -0.03809943445250       -3.70197179077675
C           10.47338351609486        0.17757953815772       -5.00501487144381
C            9.18642306603094        0.60802449696913       -5.33247998742497
C            8.26236119153693        0.81465953519562       -4.35095012585730
C            8.57701971867123        0.60190551534936       -2.99242272631518
N            7.63328703935396        0.81487844841589       -2.05749681854229
C            8.01520817179266        0.59351980786294       -0.81270495566864
C            4.41796163994046        0.39113910799867        4.58862459525335
C            5.40098463063024        0.96989465432730        5.38872672007963
C            5.75971059559799        0.39263294697776        6.58354300902594
C            5.12641261473595       -0.75800967045003        7.00525170266000
C            4.12458188736697       -1.32102689214089        6.23810659000876
C            3.74350299542178       -0.75472039306312        5.03267158946986
H            0.89481037541683       -2.63745606919917        4.30487703924631
H            1.16119147536189       -1.58470752995413        5.69904882832180
H            2.15743766325398       -3.02132455159379        5.44509739951062
H            2.59123459797623       -2.67401975563074        2.39563688569744
H            3.86970693618913       -3.06293984767455        3.55119757557783
H            4.03927670216330       -1.67215858086411        2.48170366677862
H           -0.02611692673708       -1.06308592037702        3.38701517756417
H           -1.07751041944332        0.80274062916220        2.21616309828351
H            0.25589091394087        2.75509450654526        1.54589594025525
H            2.66212578996848        2.82568079891787        2.06478831520336
H            3.73540855185387        1.40716265546027        0.65197006676982
H            5.44607572946049        1.25591003507176       -1.09202781171743
H            6.63329174744729        0.39227940069329        3.57057080636668
H            8.47289971814203        0.30788891220470        4.06264705085417
H           12.39566165506624        1.11113926880232        3.71926479669838
H           14.18635941086254        2.47748050525663        4.66069370026552
H           14.57219643982593        2.47936053949171        7.09005945611541
H           13.15096196582897        1.12971595030062        8.54954880799871
H           12.70791227315263       -0.88423463225292        9.32914918310932
H           12.44724543614829       -2.13646530211134        8.11727983407068
H           11.34983753702277       -1.98748713428265        9.48748222062984
H           11.08309785701597        1.15093960130087        9.41842700806148
H            9.72914866583620        0.04528052625218        9.59830422646442
H            9.73526381301969        1.22085951715726        8.28587364887569
H            9.15829555854325       -2.02131157222408        9.03821837990257
H            7.44247903136013       -3.39028828868559        7.96306390810701
H            7.30301620871595       -3.47665287674275        5.50849402007775
H            8.87965933737877       -2.18432484793481        4.15899129042716
H           12.29685612041034       -1.03271258576919        2.83987150368994
H           11.66801311182511       -0.69223910768323        0.48300801929814
H           11.80314210168379       -0.36886895432825       -3.44103919909368
H           11.19861799870192        0.01618224514310       -5.78564622959452
H            8.92512762938013        0.77708356370898       -6.36423641213716
H            7.26852686150643        1.14697170481184       -4.59480500516159
H            5.87473412958398        1.87764722729855        5.05687293251414
H            6.53588838058206        0.83486082210904        7.18668995576754
H            5.41227824755780       -1.21726229092932        7.93747278554644
H            3.64461887668308       -2.21876693484186        6.58380127591130
