62
 energy: -14.404024127602 gnorm: 0.000153000462 xtb: 6.6.1 (8d0f1dd)
C            0.79885812033546        1.21338673645763       -1.15731247965212
C            2.31967776569042        0.99160384827380       -1.02313749769848
C            3.00106358661696        1.15914306843138       -2.39719619280984
C            2.88436906908759        2.05152153851023       -0.06578608645122
C            2.75035061837840        3.39872469380975       -0.37898068449989
C            3.25000372922110        4.38805501494152        0.44780795089041
C            3.90127567023739        4.04194284887142        1.61465090236742
C            4.04406765133756        2.71284080236794        1.94546030407424
C            3.54089207376204        1.70255956363456        1.12367454488828
N            3.70792636655068        0.34144563215039        1.50092727461038
C            4.36832792477294        0.01314778710152        2.74674838846887
C            3.68406008504306        0.11902482031641        3.96424739613025
C            4.28880583015432       -0.26245088733552        5.13521895352803
C            5.59668511007909       -0.76314106737248        5.13681540716659
C            6.32125234583322       -0.86366168339385        3.91666603107982
C            5.67333796049047       -0.46441259605854        2.74199578478197
C            7.68323028662736       -1.37617952836834        3.92579901262413
C            8.45105907855766       -1.45074671936936        2.75056692675903
C            9.74559724040754       -1.91875057556313        2.76897779973693
C           10.31869287900662       -2.32343718222022        3.96188125384773
C            9.58841396662528       -2.26326691396685        5.13264485124729
C            8.27634086904904       -1.80607356125576        5.14334412889676
N            7.51564752777006       -1.74901884032742        6.35026014596158
C            7.74325834940685       -2.12965971471012        7.68158397704580
C            8.79265828703032       -2.75900768777444        8.36006812464722
C            8.67039487340449       -3.00004315521116        9.71225805984038
C            7.51708318077760       -2.62999172796042       10.41295530188449
C            6.46752097267756       -2.01978422179557        9.77094567223913
C            6.56743084730941       -1.76488897167780        8.39014923514441
N            5.65190309060481       -1.20985100857391        7.55695855091961
C            6.21152908972061       -1.20919734681899        6.34772906345168
C            3.22324676206672       -0.71092745716219        0.67521544106228
C            3.39807768301181       -2.03746642778480        1.07505666506923
C            2.94084521944491       -3.08394333170710        0.30614937237570
C            2.29338812289572       -2.82249256660336       -0.88437651591382
C            2.10802610495459       -1.51421576318726       -1.29204544703312
C            2.56110461201032       -0.44289748518649       -0.53158207223220
H            0.57264022698531        2.21318184848339       -1.52893345018648
H            0.31121003691772        1.09680255545459       -0.18852789199443
H            0.35065522367616        0.49749682395781       -1.84689163425516
H            2.83775050308001        2.15712600379740       -2.80482066293686
H            2.61742844246534        0.44161719886479       -3.12301751405988
H            4.07720950415047        1.00435573315816       -2.30867567808834
H            2.24605259005791        3.68050036871649       -1.28793989901305
H            3.13267749853157        5.42706881291342        0.18091346748235
H            4.29602751063255        4.80840225759763        2.26342637631674
H            4.55425671782337        2.43860146234522        2.85244170131631
H            2.67308427119105        0.48894789038882        3.96006866194717
H            3.76098555632355       -0.19535767591275        6.07101102582300
H            6.16900626723153       -0.53848628713422        1.79325873197878
H            8.02860210454972       -1.13109881774096        1.81486416796380
H           10.31653648440337       -1.96549472750422        1.85447050928331
H           11.33588486466855       -2.68322047609447        3.97719393973785
H           10.05075391756675       -2.56110066132515        6.05323465446371
H            9.67741977351452       -3.07088182367080        7.83826772999971
H            9.47578238518276       -3.48669823201909       10.24019478628627
H            7.45027657352741       -2.83255367141573       11.47059604802419
H            5.57172977092290       -1.73851327402342       10.29661838758039
H            3.89984195060748       -2.23830708257334        2.00549537962871
H            3.08764733877875       -4.10182990583103        0.63248310256854
H            1.93159751874006       -3.63632264040524       -1.49366191461684
H            1.59806001750773       -1.32237561347609       -2.22099956966748
