92
 energy: -18.251214606395 gnorm: 0.000458626364 xtb: 6.6.1 (8d0f1dd)
C            1.67656662954053        1.81311330926841        2.28719264967188
C            2.59021585405177        1.13052635988178        1.24921550303546
C            1.91269699906794        1.12664394268288       -0.13642540782929
C            3.89625266087549        1.92892315564311        1.15071830023495
C            3.85758436424075        3.25521575714126        0.75023015885002
C            5.00773538572617        4.00676392039923        0.62396082717040
C            6.23116190989613        3.43615718021917        0.89550818351209
C            6.29388968872723        2.12538581957664        1.29926242478885
C            5.14036837567133        1.35431632217417        1.44426852070715
N            5.25007313474765        0.00521647751398        1.87026257378079
C            6.54159529709499       -0.52604248765019        2.23788176580703
C            7.19029680306171       -0.07652097222298        3.40335140379656
C            8.38937599013969       -0.60220642669053        3.78070657388642
C            9.00928276801216       -1.60527387635944        3.02107483858136
C            8.37823421177563       -2.06045806938632        1.84256386342854
C            9.00598221342979       -3.08148612139921        1.07139100563090
C           10.18068724740306       -3.62156887333124        1.46129742532382
C           10.84551110304707       -3.20149280130021        2.65009591957835
N           11.99162727470851       -3.79642641838707        2.98262497575207
C           12.55230159570431       -3.35217558610789        4.10791220731777
C           13.77405869592300       -3.94549991716384        4.54059009885266
C           14.40168549567377       -3.54707103884137        5.66811245998432
C           13.86476620750389       -2.50073768941615        6.47330503369857
C           14.50234289984178       -2.06704456732113        7.63858158158140
C           13.99738583078430       -1.03226884530938        8.40869326040872
N           14.64259726792172       -0.61385687543383        9.60978353110573
C           14.08146626653048        0.39974572565549       10.45394224292740
C           13.74525209585117        1.65868682264203        9.95905904712050
C           13.22980222390804        2.62172747907711       10.79139011113902
C           13.05187459810077        2.34701817683878       12.13117555120628
C           13.40410385302976        1.11210938749581       12.63990996562567
C           13.93321242896312        0.12847241619098       11.82289696483899
C           14.34877326888845       -1.26444166465348       12.32703436070189
C           14.58979426939814       -1.25261927825558       13.84939655780802
C           13.22270314787249       -2.26048813175947       12.00375865313721
C           15.61697571046773       -1.69262979175585       11.56830515089809
C           16.65062399791731       -2.40394953047516       12.15180112543801
C           17.77840051972516       -2.74254141895450       11.43025365669797
C           17.89605795402359       -2.36249915881447       10.10981154239233
C           16.87864237261098       -1.66517155531972        9.50556858677892
C           15.71770710443552       -1.34975637355880       10.21020800465061
C           12.77713639648211       -0.45413864757197        8.01000505547972
C           12.13033151127717       -0.86578850816993        6.88305057242389
C           12.65658722892375       -1.88731504282712        6.08156136327717
C           11.97826449220452       -2.31582419951015        4.88597995285629
N           10.82962568340905       -1.72621366792887        4.55684161100611
C           10.26327846048960       -2.17723221418793        3.43819307303171
C            7.15133784640814       -1.50556285886953        1.47090311336468
C            4.09757401212684       -0.81687030683946        1.97606385703652
C            4.22982589218477       -2.13823272839167        2.40422087517484
C            3.13974055086229       -2.96379188432023        2.52596822502597
C            1.88511685410015       -2.48238197241203        2.22640389588478
C            1.73349071488448       -1.17477289626737        1.81335707791105
C            2.81901803871468       -0.32273215268982        1.68350552430252
H            1.46387989062425        2.84464372753823        2.01262011727237
H            2.15344600214038        1.81767617185784        3.26636300970213
H            0.72422958456277        1.29443611687175        2.38080064553118
H            1.70879841033677        2.13808747985453       -0.48280540516620
H            0.96601918703270        0.59006153256195       -0.11528810840663
H            2.55566424998669        0.64373409684059       -0.87097448824130
H            2.90895835595594        3.71222841664055        0.52965970373716
H            4.94984289957032        5.03587180626159        0.30945405816176
H            7.13376224712201        4.01545030931749        0.78997675283177
H            7.24926312482277        1.67616648126578        1.50243442316614
H            6.71166685564514        0.68138952787005        3.99819935018610
H            8.87889825859158       -0.26269995813405        4.67630615723500
H            8.52436568954884       -3.41999778493844        0.17060154943475
H           10.64676981182929       -4.39513365681807        0.87627335091245
H           14.18765026683070       -4.73264595181252        3.93459441774148
H           15.32293229791947       -4.01344521516843        5.97099196912661
H           15.39371922031608       -2.57602321679080        7.94695085056166
H           13.92423069342820        1.87508366213742        8.92033752221969
H           12.97115039078688        3.59187889940214       10.39997719005274
H           12.64537428454517        3.10170687344278       12.78423191149916
H           13.26331674903615        0.92121929392902       13.68826420787224
H           13.68893659267584       -0.96564477344042       14.38873066238748
H           15.38430325964569       -0.55511411589203       14.11084945109025
H           14.86569742085067       -2.24070490489980       14.21304330838580
H           12.29793296276032       -1.97786102708231       12.50474404070037
H           13.49066818390973       -3.26677574287330       12.32255657890409
H           13.03095733400348       -2.28711476932174       10.93193423558215
H           16.58399939284512       -2.69957796237196       13.18308155331033
H           18.57479783267523       -3.29281000415562       11.90385007383929
H           18.78814959992693       -2.60484383106892        9.55590919235588
H           16.98782747326348       -1.31576672364086        8.49380424607924
H           12.33296486059495        0.30649506457408        8.62458441060411
H           11.19911925951932       -0.41462470211334        6.58891559615484
H            6.66324064912121       -1.84449005507744        0.57594532039069
H            5.20721443756205       -2.51190247507960        2.64964124333617
H            3.26450669161770       -3.98237022541878        2.85514279052277
H            1.02417702187654       -3.12379258577432        2.31950886838206
H            0.74639515814754       -0.80853748105687        1.59238384578573
