83
 energy: -15.672679774601 gnorm: 0.000489722521 xtb: 6.6.1 (8d0f1dd)
C            0.56582054124800       -0.04070964301932        0.32256824413590
C            2.05886959271369        0.28036008309962        0.10999673628957
C            2.29254826672088        0.80767426966239       -1.32109964872506
C            2.46771110347615        1.37658294384326        1.10485289761825
C            1.85362431350662        2.61849694789576        1.04906235905097
C            2.20247329090591        3.63645575319365        1.91240345917612
C            3.18183570521099        3.42900209946429        2.85762591674991
C            3.80049739941029        2.20531306949574        2.93498768318623
C            3.45708413305239        1.16632885774694        2.07275658017767
N            4.12495712942809       -0.08186305996692        2.18253858653938
C            5.19249344168137       -0.24113017183482        3.14312371733531
C            4.93302990616075       -0.59015193904358        4.46648200180746
C            5.96792803221023       -0.76801829297264        5.35724185097580
C            7.27502399473009       -0.60405064343312        4.93905321452105
C            7.53799782668312       -0.25962911280160        3.63320681437535
S            9.23151069594889       -0.05107613023201        3.07830854837462
O            9.33427301376542        1.32610284616592        2.47226257636245
O           10.10553269956215       -0.66537106837438        4.14386340975812
C            9.17007127017819       -1.21834873378374        1.71967216963545
C            9.00886580414028       -0.77490202482170        0.42710476229341
C            8.93242676931196       -1.68827963769702       -0.60652124220235
C            9.01621464749681       -3.03622700436330       -0.33906835126375
C            9.19302105527657       -3.49167484531081        0.96607572411113
N            9.28068574676568       -4.90317527259882        1.25450249963621
C           10.43165997039940       -5.62927371235638        0.84641081056367
C           11.50736027273576       -4.94952021000246        0.27832331942495
C           12.63207045567950       -5.61686872486741       -0.14086793412517
C           12.70281708147553       -6.98437857109461        0.00062222415648
C           11.65099994689987       -7.67105341044504        0.57079811958232
C           10.50976050355410       -7.01734406120156        1.01026905194531
C            9.37721775945328       -7.82117958167795        1.66420340237386
C            8.81663533875420       -8.81120741101208        0.62418070114979
C            9.95712530441567       -8.58752384112499        2.87225217040928
C            8.22801940747042       -6.93106922058662        2.15878461347964
C            7.15434111636350       -7.50359953297850        2.82370255589434
C            6.09864260664023       -6.74306632358465        3.28198612467821
C            6.09490324713709       -5.38196430806080        3.07714556184955
C            7.14420256124307       -4.79482653697662        2.41413971907548
C            8.22074853122572       -5.54689863277216        1.94873782983884
C            9.27748064830226       -2.55578023294142        1.99346879052963
C            6.51426962302342       -0.07461439742765        2.74177118283838
C            3.83663776656583       -1.14578740872692        1.28770553774959
C            4.53560586416869       -2.34435532491611        1.40542394146453
C            4.29477454670573       -3.39728723966950        0.55788366611630
C            3.34069237920854       -3.27092306506709       -0.42622550562756
C            2.63621310184761       -2.09121517686667       -0.55329083331086
C            2.86562616963445       -1.01365456886967        0.28879900159293
H           -0.05420236188083        0.84293230087234        0.18308519788986
H            0.39816051319654       -0.41203684793482        1.33257121547056
H            0.21941673931618       -0.80009391786674       -0.37604350165769
H            1.72225337323399        1.71514682933711       -1.50988375109679
H            1.99724123421529        0.07456163011583       -2.06926561010075
H            3.34644806009312        1.03657526974989       -1.47282441511672
H            1.08769865425981        2.79607562257070        0.31500805350722
H            1.71192634598592        4.59387862109069        1.84540928501980
H            3.46181160413787        4.22223631195731        3.53126124756546
H            4.56922605341158        2.04007374435783        3.66859235535461
H            3.91154247855169       -0.71938808168283        4.77804271778467
H            5.76026995076489       -1.03342409719325        6.38066529178671
H            8.09924884676988       -0.73904180072417        5.62091550292497
H            8.95466271375758        0.28506645500178        0.23862150750981
H            8.80757777039746       -1.34468531891803       -1.62000764307315
H            8.94913306125884       -3.75772360226953       -1.13415068719425
H           11.45297161415532       -3.88034280389824        0.17738098822450
H           13.45441283313791       -5.07372913624601       -0.57689701486346
H           13.58054224232589       -7.51615204071131       -0.32889444096276
H           11.72108483481636       -8.73926212482697        0.67564660885724
H            9.59172551832699       -9.48107589016124        0.25626371486063
H            8.40602549654862       -8.27283716187076       -0.22884130878991
H            8.02315827541867       -9.42431587938144        1.04763885520081
H           10.76411942695788       -9.25345206592571        2.57298365841334
H            9.19862800622755       -9.19519848657970        3.36169481870684
H           10.35426636727997       -7.88965250759824        3.60806400599478
H            7.14018323336977       -8.56690989566451        2.98526507749469
H            5.27924692179090       -7.21308928607934        3.80077554457167
H            5.27588904778688       -4.78259085728945        3.43859850522069
H            7.14491830697575       -3.73297985088349        2.25242784012785
H            9.43899850621051       -2.88403374087310        3.00551475608306
H            6.72425964810720        0.19930092857786        1.72345904360401
H            5.27396345708061       -2.43646920697905        2.18041096871349
H            4.84675409338888       -4.31601481986587        0.66375685536091
H            3.14287719401149       -4.09282583737879       -1.09457321462458
H            1.89005935608710       -2.00884025195305       -1.32361659036862
