91
 energy: -19.002359358731 gnorm: 0.000200361138 xtb: 6.6.1 (8d0f1dd)
C            2.10483189475928        0.39997462024948       -1.37628829184371
C            3.40739311823390        0.04885567845770       -0.62885006899635
C            4.50447805667461       -0.35254929798510       -1.63377552865786
C            3.87919677339970        1.29184497797050        0.13812839632323
C            4.14626044941269        2.46359942514015       -0.55414584936987
C            4.58748257341090        3.60039604758035        0.09234971524070
C            4.77532658893363        3.58303484384805        1.45703923286671
C            4.51787364753935        2.43247856001694        2.16304515143104
C            4.06553829755596        1.27858697561369        1.52585127089358
N            3.80903496794228        0.10807506438120        2.29184175868803
C            4.17149040731653        0.07594769526762        3.69234946601075
C            3.34213314907120        0.63875306069145        4.65910223535658
C            3.69656307011093        0.60220432550992        5.98881400101953
C            4.88059621698899        0.00347912724681        6.37461033311219
C            5.71106193920440       -0.56088532198426        5.42571982612314
C            5.36080128489675       -0.52637610494629        4.09519374945164
C            3.28801758098401       -1.05968641055523        1.68283556373363
C            2.93703955310914       -2.15307743033332        2.47572880715280
C            2.46569239730280       -3.31194755873428        1.91947662681464
C            2.35271777562988       -3.44374546068613        0.53596321051973
C            1.91666417778006       -4.70631028755439       -0.06798080358379
C            2.35268199474381       -5.10153994545447       -1.31823754534698
C            1.97250688583067       -6.31324964000443       -1.90424033167062
C            1.11340156184316       -7.20404928005042       -1.28959603454570
C            0.72739860670345       -8.46654428351880       -1.92688190838063
C           -0.51557693983047       -9.04697864235240       -1.67739225653484
C           -0.89013218181433      -10.19928283192075       -2.31517035492387
C           -0.03242990730412      -10.84556119576018       -3.20628040754500
C            1.24441478604192      -10.31267671805656       -3.43214061913346
C            1.58894743361465       -9.13029453895056       -2.80551444931584
C            2.26798276751948      -11.01778579563397       -4.33174810714885
C            3.51559852261165      -11.34094827550594       -3.48438569794782
C            2.64222856795538      -10.07019407818576       -5.48771765854751
C            1.73150786453180      -12.32664327835179       -4.92738206645589
C            2.55195731213860      -13.09834521435011       -5.73662562182982
C            2.10727870666100      -14.27575215815609       -6.30314351255765
C            0.81857795860744      -14.70388486723411       -6.07079744232384
C           -0.01245679389201      -13.95398277314862       -5.27357512234349
C            0.42353154378645      -12.76615731512262       -4.68961551969546
N           -0.46642705307272      -12.01928033190488       -3.86951747175442
C           -1.85465206068741      -12.41676883704514       -3.77499630066421
C           -2.81771631688890      -11.79610584447299       -4.56664379556189
C           -4.13929378996093      -12.17089467529113       -4.48189380900605
C           -4.52065226698555      -13.16896161846959       -3.60607199770876
C           -3.57554159698248      -13.79142060562326       -2.81326009587292
C           -2.25257137330479      -13.41973122923489       -2.89471375292509
C            0.60375540429409       -6.84176711701844        0.00971169140003
N           -0.22341563556843       -7.53475370287675        0.76153852215090
S           -0.46683212354738       -6.70637730015637        2.15990161264076
N            0.49908803779828       -5.41945610919341        1.82566375100110
C            1.02625622763819       -5.59723612156857        0.63394356541147
C            2.68185106203164       -2.33547156536101       -0.25040474669781
C            3.12640065936174       -1.14512849994891        0.29285354426791
H            2.25197950117482        1.22864904410541       -2.06700583360588
H            1.32806474572145        0.68644849902476       -0.66800279805457
H            1.73635897691342       -0.44697801788357       -1.95295958212171
H            4.72480195755717        0.45930276675780       -2.32530404248304
H            4.20551850552796       -1.21706958201049       -2.22457247873646
H            5.42473186248789       -0.60600104778104       -1.10854052167753
H            4.01007197509383        2.48758954475953       -1.62130558976861
H            4.78662999622894        4.49872450233195       -0.46892768031154
H            5.12214597182658        4.46659499526300        1.96775555552294
H            4.66528022726208        2.41438459950634        3.22799439266087
H            2.42082523031132        1.09888506758572        4.34715732897633
H            3.04890580488676        1.04050084421632        6.73036414745785
H            5.15634205664214       -0.02414190175062        7.41615170696755
H            6.63417229965660       -1.02848689924810        5.72706341668701
H            5.99925346697998       -0.96172170761439        3.34631177776904
H            3.03563755690424       -2.07227372264179        3.54362341421462
H            2.17962208152913       -4.13864144824398        2.54460651734906
H            3.03708987912475       -4.46355024669668       -1.84933374362950
H            2.34482434017335       -6.55181166498023       -2.88506253096897
H           -1.17786954484794       -8.57357900103665       -0.97495585620312
H           -1.85845927951990      -10.62687284179882       -2.12508985653191
H            2.56619793635112       -8.71659036375841       -2.97169994735190
H            3.94798482219547      -10.43972965279035       -3.05258447611875
H            4.28892497421801      -11.82302002963530       -4.08019057095413
H            3.25381356492371      -12.01189172566978       -2.66682770224204
H            3.05406446797329       -9.13315094812742       -5.11596233327120
H            1.76221229346547       -9.83690453386092       -6.08615589759458
H            3.38555514809605      -10.52016142645624       -6.14412927109234
H            3.55845122984027      -12.77104259905564       -5.93103435605071
H            2.76570173959392      -14.85801089316766       -6.92695367720280
H            0.46446061289289      -15.62149864216293       -6.51167387676499
H           -1.01949330749375      -14.28379768073434       -5.09094419797676
H           -2.50762827439760      -11.02076438127279       -5.24535097046333
H           -4.87687573570435      -11.68529811427720       -5.09975718955384
H           -5.55593096650794      -13.46148814583120       -3.54100822222067
H           -3.87475378097691      -14.56874375326465       -2.12936906111127
H           -1.50802111553268      -13.89515639147996       -2.28034272343514
H            2.55486699536618       -2.40890063954983       -1.31449813281769
