102
 energy: -21.224902309851 gnorm: 0.000523056195 xtb: 6.6.1 (8d0f1dd)
C            1.27689395234951        0.19233593937707       -0.08447558652641
C            2.81037320977944        0.13720286533132        0.06501519979316
C            3.48106597937883        0.17493271213580       -1.32316994096589
C            3.26615509836746        1.36684608950400        0.86166252580718
C            3.01795822471658        2.63683995625328        0.36275310375850
C            3.41377340118904        3.77034011538457        1.04331070691886
C            4.07107224877851        3.65122935297180        2.24814666440673
C            4.32457768695939        2.40244063103765        2.76267669741502
C            3.93026097856431        1.24823225223517        2.08844307627454
N            4.21500579262383       -0.02537203423764        2.65300145715183
C            4.88521142159463       -0.10130781669007        3.93319172139330
C            4.17049258033330        0.06362665739156        5.11702028055176
C            4.81016219343681       -0.00345748159223        6.33386410455876
C            6.17086286935686       -0.23641437548874        6.38890335298823
C            6.89157462692104       -0.40326019912917        5.22201988300331
C            6.25605191794965       -0.33655036010008        4.00295788265850
C            3.85122275064674       -1.21838746622175        1.98144527572569
C            4.15020785808984       -2.45436139559309        2.55553021304154
C            3.80796681634106       -3.63075411648187        1.94028246100165
C            3.14632708599146       -3.61990457963559        0.71407638648034
C            2.76551507433356       -4.87351822985787        0.03408759877391
C            2.38208363573582       -6.00335684500734        0.76006304931078
C            2.00914142248594       -7.16070175220829        0.11905121421889
C            2.01219067825094       -7.23957549275326       -1.26782630020361
C            1.57529834565194       -8.48991633521443       -1.92563652561418
O            0.84314897722438       -9.26669705103497       -1.33899246484660
C            2.01899673229809       -8.78599442413591       -3.30798068504864
C            3.30801998471439       -8.49027065135174       -3.74424023050297
C            3.69113490910513       -8.76694587250887       -5.03397687347922
C            2.80101887371435       -9.35280537512870       -5.93636420574786
C            3.20570415880180       -9.62173639434642       -7.33087881160984
C            2.32005381034236       -9.42031616969105       -8.38721879345794
C            2.71691623047358       -9.64897438089382       -9.67884800295745
C            4.00685297602987      -10.08958058713053       -9.97590147323820
C            4.90881011492657      -10.31501026409268       -8.92736868001946
C            4.49180187238298      -10.07231854310798       -7.63154065250872
C            6.33248334779068      -10.82889814031488       -9.17926793461464
C            6.49727463845818      -12.18116490298244       -8.45693129288293
C            7.33170294467565       -9.79973445904379       -8.61359592459156
C            6.63346265685234      -11.03380242436380      -10.67022327865725
C            7.88329461599244      -11.49145163923055      -11.06000017147167
C            8.19978426414946      -11.68370211956587      -12.38952944357094
C            7.26125003566706      -11.41827408698599      -13.36244298368140
C            6.01581460086170      -10.96547339565612      -12.99885497811598
C            5.68010830862401      -10.76843269931956      -11.66071938544171
N            4.38229083587451      -10.29396051846620      -11.32625278950587
C            3.44271192873456       -9.98148119236442      -12.38158276284137
C            3.26100706145817       -8.66501064764513      -12.79807547325978
C            2.36364092644737       -8.36660299311386      -13.79807512214500
C            1.63435134705818       -9.37523283649244      -14.39766738674833
C            1.80414094890974      -10.68542800996824      -13.99331239792539
C            2.69995940830076      -10.98831423977809      -12.99311532915929
C            1.51742670034775       -9.66771422514361       -5.48567719244337
C            1.13813896588052       -9.39497781356525       -4.19340368810992
C            2.38457182498430       -6.11384428997785       -1.99783287989397
C            2.75748916909035       -4.95612170054353       -1.35993833756741
C            2.84825548265304       -2.38072911125821        0.14535040609559
C            3.18476515479787       -1.18386827715624        0.74959957135098
H            0.95891518797997        1.10620516338826       -0.58381059668161
H            0.80009117034120        0.16087464339533        0.89461580615769
H            0.90353506276134       -0.64860853723254       -0.66677659206642
H            3.22836610428932        1.08616306304415       -1.86285931412180
H            3.17021332017663       -0.66793072689347       -1.93847982338069
H            4.56496443867352        0.13437202865038       -1.22086442948350
H            2.50392965571701        2.74242030791119       -0.57671251194572
H            3.21010199156532        4.74602703234306        0.63311989580034
H            4.38356119961440        4.53241975039149        2.78442899424785
H            4.83725735868817        2.30537220831382        3.70298056196174
H            3.11079005213418        0.24202377269707        5.06109340469222
H            4.24878181288573        0.12601761605659        7.24469471987946
H            6.67017728245790       -0.28750360060500        7.34267918947641
H            7.95288743553719       -0.58541882063719        5.26606346659404
H            6.80687749310070       -0.46248978228731        3.08719029356681
H            4.66253101451695       -2.47567624849050        3.50076020013249
H            4.06463937703970       -4.57234061015208        2.39382955265779
H            2.35546406500876       -5.95359316939130        1.83463368131182
H            1.69514375284804       -8.02469322250670        0.67968561409190
H            4.00531655967519       -8.04607259071626       -3.05492195934334
H            4.68270136281593       -8.51261891628211       -5.36636411550441
H            1.32662487480930       -9.06117869866908       -8.18088391996400
H            2.02681828105819       -9.48348998940600      -10.48681305465745
H            5.17090093773640      -10.24996822022458       -6.81800376263482
H            6.31091957196032      -12.08649835717123       -7.38831476876817
H            7.50311757937315      -12.57899168883253       -8.58180287811913
H            5.79484913673519      -12.91154732232520       -8.85705495425239
H            7.17773305536852       -9.64018602136041       -7.54752576895062
H            7.21391701350125       -8.84106028240680       -9.11755475778876
H            8.36091188354531      -10.12748356011550       -8.75094215691093
H            8.62509139680240      -11.70149677365831      -10.30929264308697
H            9.17880975912418      -12.03957861414578      -12.66621634519903
H            7.50197966981329      -11.56608095922433      -14.40261788376927
H            5.28065743282345      -10.75644857133726      -13.75531285900510
H            3.83461784139890       -7.88825702132981      -12.32316415577181
H            2.23004162348944       -7.34470095548621      -14.11335990508463
H            0.93224708703259       -9.13991591916489      -15.18079005461352
H            1.23314378094977      -11.47118351448737      -14.46024918833132
H            2.83734234893424      -12.00413418804293      -12.66584221838576
H            0.82669698649416      -10.14281506789458       -6.16050604007120
H            0.15162807819862       -9.64765400889862       -3.84387181028492
H            2.36252416274533       -6.15370201831431       -3.07300298991359
H            3.06082519941985       -4.10122252751350       -1.93893725969044
H            2.31774694341442       -2.36341373601603       -0.78867151606973
