71
 energy: -16.422338921497 gnorm: 0.000813103402 xtb: 6.6.1 (8d0f1dd)
C            0.73901883550804        0.10947519189188       -0.06022146797201
C           -0.46314102603552       -0.11018631075114       -0.06076781588337
C           -1.87159679627817       -0.16650746965002       -0.05918231548860
N           -2.47251129369273       -1.35870633442673       -0.06017199424532
C           -3.80739029698277       -1.37130510812208       -0.05634591662761
C           -4.48178146387774       -2.60920647281283       -0.05908775575860
C           -5.21826255278650       -3.58439640050799       -0.06710594979467
C           -6.20122002887950       -4.59528754011754       -0.07948738619155
C           -6.69921881376170       -5.11749297395325        1.10908874700041
C           -7.70158882376850       -6.06381887714738        1.09662132953548
C           -8.22430702646854       -6.50235796923002       -0.10255766244091
C           -7.74111356998558       -5.99328992638586       -1.29036236728287
C           -6.73841778858307       -5.04729284174147       -1.27982927616035
C           -4.59338425289718       -0.21039281849706       -0.05015865483540
C           -5.99880498677564       -0.31862170687909       -0.04238458672127
C           -7.20189302155160       -0.52800521036810       -0.03514619429490
C           -8.56535937930152       -0.88685244937583       -0.02748159047082
C           -8.93264646670144       -2.22752475896683       -0.06313300758608
C          -10.26040542263321       -2.59530091124530       -0.05762850252464
C          -11.24380637194956       -1.62835528431522       -0.01542189061894
C          -10.89590903606454       -0.29313510238706        0.02169008566122
C           -9.56734899977750        0.07605006778402        0.01570635319300
C           -3.96220690458889        1.03360039275087       -0.05233107718903
C           -4.70354165777743        2.22972417643767       -0.05118469647657
C           -5.33463936388702        3.27522505249983       -0.05123846914098
C           -6.05042894431426        4.48949297408375       -0.05049235277880
C           -7.44078443592394        4.49586999799916       -0.07828907281959
C           -8.13871419535822        5.68486404036064       -0.07590828954504
C           -7.45904027199180        6.88558067920641       -0.04544583318796
C           -6.07936412941182        6.89555218469654       -0.01802033668963
C           -5.37976242573191        5.70753019483449       -0.02053023793383
C           -2.56716624235159        1.05075020593742       -0.05802928894700
C           -1.85456930035737        2.26696074179435       -0.06220952294266
C           -1.15180941434564        3.26558564122896       -0.07203290026768
C           -0.25759626429015        4.35540433288875       -0.08879008446418
C            0.01318266305752        5.07482306444266        1.06990148765557
C            0.91711649961232        6.11575602733386        1.05644163783235
C            1.56666837035476        6.45294147865367       -0.11334074360475
C            1.30923535910064        5.74790910075189       -1.27111481871074
C            0.40429682508154        4.70809544208892       -1.25995965969198
C            2.08884798886093        0.51717972820561       -0.05912325417662
C            2.40227641864242        1.87192024837511       -0.06077118601391
C            3.71405345395158        2.29320638686635       -0.06149140080324
C            4.73545752058528        1.36561042254270       -0.06019238745182
C            4.44156681532353        0.01702083612035       -0.05846548455353
C            3.12882240872454       -0.40541900211795       -0.05787802299496
H           -6.29615439267289       -4.76287047570206        2.04235561658584
H           -8.07951717354124       -6.45979878469993        2.02496732689491
H           -9.00888090569326       -7.24117545199498       -0.11140906756963
H           -8.15023722410062       -6.33358355541372       -2.22738618595901
H           -6.36662061274754       -4.63737436186716       -2.20336111922676
H           -8.16191328619746       -2.97764092376910       -0.09447185857191
H          -10.52859894744634       -3.63876603139394       -0.08628216844114
H          -12.28262118708136       -1.91535051896631       -0.01130115604245
H          -11.66382892929061        0.46233230555902        0.05543958983168
H           -9.29035244617312        1.11602953958598        0.04468252936477
H           -7.96502571104411        3.55572866884768       -0.10193892228433
H           -9.21615376155839        5.67647253101363       -0.09717769033552
H           -8.00541212862243        7.81458287947618       -0.04292275422240
H           -5.54796362290110        7.83287906066725        0.00578136775583
H           -4.30316144051568        5.70816527402718        0.00114121416447
H           -0.49007401136495        4.80209317172018        1.98181376176212
H            1.11796335226802        6.66574262988440        1.96129053022005
H            2.27431826017672        7.26578316102517       -0.12268618968482
H            1.81773325153192        6.00885166669705       -2.18482163630923
H            0.20548220084212        4.14945129735610       -2.15882136339854
H            1.60127654328222        2.59031607464549       -0.06539166090726
H            3.94013003298299        3.34697586639799       -0.06394449880622
H            5.76189160448926        1.69426267579244       -0.06100964403596
H            5.23944682951921       -0.70745397181282       -0.05810888925067
H            2.89374151472807       -1.45604587988464       -0.05687331285084
