103
 energy: -21.284233017594 gnorm: 0.000565736822 xtb: 6.6.1 (8d0f1dd)
C            0.86135070248129       -0.12370002786670       -0.25779113716688
C            2.40156611000600       -0.06429340133415       -0.27936826024008
C            2.91355771035381       -0.08544285253127       -1.73387413226169
C            2.84708732954474        1.24968612511967        0.37609926877055
C            2.45193684599221        2.45905127459450       -0.17573601654919
C            2.83171200555050        3.66430918901576        0.37873731581833
C            3.62185467011706        3.68092782272425        1.50695205897214
C            4.02399443822450        2.49439420489943        2.07135336130390
C            3.64685388416858        1.26916638332278        1.52499833970939
N            4.08888333819753        0.06390734148025        2.13604058475420
C            4.87422539796145        0.12720885631990        3.34928914825848
C            4.26091056030955        0.36436520010442        4.57675783491391
C            5.00784122481929        0.42117702579524        5.73127704705584
C            6.37652452451082        0.24119430349544        5.67974193061922
C            6.99773018571206        0.00526405884629        4.46860480675709
C            6.25479935268436       -0.05090158460653        3.31138654847160
C            3.75349031124977       -1.19836899637647        1.58502557689268
C            4.22001803511176       -2.36320411865338        2.19313659328324
C            3.90988878284133       -3.60278946672700        1.69615450596903
C            3.10636572403106       -3.73048817604980        0.56585946551655
C            2.75233997378832       -5.05737201781854        0.02141322197024
C            2.61292386176197       -6.16445353704876        0.85995160775206
C            2.27594979996265       -7.39883761718834        0.34745468562433
C            2.06696118365630       -7.55181884114369       -1.00285725294223
S            1.62180190140870       -9.18154286098068       -1.61577733680040
O            2.48339141535498      -10.17929732435915       -0.87348367643887
O            0.11056392230242       -9.23718294270940       -1.66513803469225
C            2.22194613303285       -9.08387864694163       -3.30282579644988
C            3.57313507178051       -9.04797725688039       -3.55866905209713
C            4.02440476547005       -8.95540552689359       -4.85782038966334
C            3.12465813775151       -8.90193200513428       -5.92418145317542
C            3.60157053451969       -8.80723544219836       -7.31931041943102
C            2.88432653668775       -8.09709742736857       -8.27869791640522
C            3.33191152904294       -8.02907915605447       -9.57260036743797
C            4.51217360315435       -8.65790399862660       -9.96719688214998
C            5.25262488047817       -9.37410996348195       -9.01819584313900
C            4.78121334852654       -9.43493338228107       -7.71917870592910
C            6.55718700161501      -10.09492683009555       -9.38282081521071
C            6.37989261106363      -11.60022275263483       -9.10188498132874
C            7.69110219874623       -9.52152852115557       -8.50914472188274
C            6.93997383107848       -9.91739989313880      -10.85835436475698
C            8.10790209571604      -10.49152651420899      -11.33749637568093
C            8.49215219612532      -10.35460646768230      -12.65585610631570
C            7.70637753885698       -9.63307854637313      -13.52733675313119
C            6.54379472389034       -9.05725289033187      -13.07470489442381
C            6.14062550395053       -9.18895766730727      -11.74730663765025
N            4.93140347271853       -8.57649257344500      -11.31882953161700
C            4.10032940402915       -7.89046761623932      -12.28409359052861
C            4.11630873177774       -6.50107460407115      -12.37580336114347
C            3.31999167083488       -5.85301823936271      -13.29242450399559
C            2.49760982227563       -6.57939330432180      -14.13181476737123
C            2.47347856876844       -7.95832754710576      -14.05247801570532
C            3.26724909427994       -8.61037703341267      -13.13663878376562
C            1.75925515246655       -8.94807573573447       -5.63820319498955
C            1.31651260204262       -9.03730147820998       -4.33645057900565
C            2.19445417353537       -6.47327033160026       -1.84941921677484
C            2.53856111339058       -5.23798802398880       -1.34616782785971
C            2.63949156725637       -2.56183911299990       -0.03592201071151
C            2.94811696641543       -1.30202966999378        0.44406346690006
H            0.42422437545855        0.72541306931389       -0.78061085601039
H            0.49653201925095       -0.11066479071847        0.76857097042991
H            0.49147086738842       -1.03025808397609       -0.73392457789226
H            2.53221245576118        0.76083260986070       -2.30271965524848
H            2.60701375573060       -0.99373255722303       -2.25009014725247
H            4.00184786223288       -0.04008169438655       -1.75230853331438
H            1.83467670602657        2.45924297598133       -1.05708847412404
H            2.51204289813814        4.59063173062097       -0.06989548731841
H            3.92251617653444        4.61886398102975        1.94452256456241
H            4.64410870785701        2.50289183733598        2.94981729882973
H            3.19378786320008        0.49977591900641        4.60423190002139
H            4.52385834365762        0.60498018975872        6.67644242892641
H            6.95982586156903        0.28383825634218        6.58493674919988
H            8.06546127017709       -0.13522404355826        4.42930725714253
H            6.72763798775617       -0.23274706420020        2.36209372064970
H            4.83684730873411       -2.27901033673849        3.06962739879016
H            4.29984105424972       -4.48632525403837        2.17101809032113
H            2.75162303641024       -6.04592240990473        1.92022596102023
H            2.17105942405682       -8.25629997905262        0.99243343424787
H            4.26651491972885       -9.09481152654549       -2.73516797505659
H            5.08097263333270       -8.90807500207018       -5.05568053845386
H            1.97943221269761       -7.58913195342817       -7.99310041982785
H            2.76602708323765       -7.48221380692766      -10.30507145350058
H            5.32897128652018      -10.00193071547326       -6.98918569258991
H            6.13121855565788      -11.78334714269876       -8.05785478929119
H            7.28890329924482      -12.15562958528457       -9.32686906589636
H            5.57666884414594      -12.00747511814699       -9.71481431909604
H            7.47529068816177       -9.64125137282287       -7.44872347354286
H            7.82041541858365       -8.45817391879008       -8.70740147493061
H            8.63866917760743      -10.01845242445578       -8.71006328000492
H            8.73011951818965      -11.05786069271255      -10.66675600475223
H            9.40503147139343      -10.81011063372769      -13.00326638960156
H            8.00133667805675       -9.52142511226341      -14.55793319321927
H            5.92887735456091       -8.49050970837188      -13.75076514105989
H            4.76251865560490       -5.94625040022106      -11.71824616302980
H            3.33813203173765       -4.77734245338087      -13.35513378509190
H            1.87447876533869       -6.07019671679253      -14.84866012763965
H            1.83170584995786       -8.52430845807301      -14.70757727393825
H            3.25458853942213       -9.68377453616114      -13.06255144411703
H            1.04903755821824       -8.93416917694066       -6.44633085125320
H            0.26356580052868       -9.07668674287249       -4.10946234052714
H            2.02485857326309       -6.60224226718667       -2.90484658345675
H            2.66046228954456       -4.40408247865784       -2.01503863483530
H            2.00054704768990       -2.65069227248772       -0.89499329075833
