82
 energy: -16.871541830422 gnorm: 0.000458237908 xtb: 6.6.1 (8d0f1dd)
C            0.92492323160650       -0.09780332237703       -0.07101063170472
C            2.44901763793014        0.11635715345406        0.01944374254463
C            3.02830806225374        0.40499987847307       -1.37948655244993
C            2.72085278890990        1.32896126623656        0.91965911233020
C            2.19338931563359        2.56591583846118        0.58037718545446
C            2.42121470680040        3.68564665972295        1.35434443326836
C            3.19058413970805        3.58605869131817        2.49282051672809
C            3.72400465041523        2.37018667001852        2.84763914909428
C            3.50110838367795        1.23011394206930        2.07801230056190
N            4.07849872117703       -0.00774994074598        2.47464759006682
C            4.92837006781766       -0.05702224383277        3.64474121659120
C            4.37705233969417       -0.15354507265991        4.91976545957388
C            5.19027402644772       -0.21279937623897        6.02886630323724
C            6.56383078858573       -0.17751936403573        5.88360236951932
C            7.12352215072875       -0.08229405251149        4.62404765351281
C            6.31409945684197       -0.02219069464155        3.51241002965435
C            3.86283047467498       -1.18662310076607        1.72142160272903
C            4.43298943873767       -2.38887283926878        2.14305751923959
C            4.25205247033899       -3.55056646432204        1.43959086051935
C            3.47666624462698       -3.55381705973152        0.28504184588792
C            3.26742443996493       -4.76687048155548       -0.53162651852135
O            3.00342339854573       -4.66003069643756       -1.71786336953499
C            3.38220445241431       -6.11031200438575        0.07594300386950
C            3.03379734102700       -6.36762539925964        1.39770004819611
C            3.14618873281171       -7.63604092830473        1.90375437756140
C            3.59458475757121       -8.69632349651751        1.11448886308478
C            3.92277806367514       -8.45811138050816       -0.22726817862020
C            3.80755083068285       -7.17029945317316       -0.71520306627895
C            4.39856624712531       -9.57924761040938       -1.15924468235708
C            5.81251964526152       -9.22810722692208       -1.66224953443527
C            3.42020290766539       -9.67268990004554       -2.34726260071216
C            4.45327252835553      -10.94493743962055       -0.46190385502110
C            4.84850141370147      -12.06503058298242       -1.17780310711541
C            4.91411330408568      -13.31197215069996       -0.58989095744544
C            4.58234221619427      -13.46135217909205        0.73889307323654
C            4.18916415792914      -12.36462230839952        1.46780004283214
C            4.11830588988662      -11.09923171593752        0.88860875580939
N            3.71004363570653       -9.98939325279431        1.67851749905004
C            3.43030284991505      -10.18354956093993        3.08518812045600
C            2.14144605480105      -10.48450496596066        3.51765767992663
C            1.88162370406550      -10.67779601081804        4.85557716688375
C            2.90192742843790      -10.57359126396534        5.78141331216683
C            4.18490612832934      -10.27396516912094        5.36543515811959
C            4.44911047185805      -10.07966186184789        4.02860052320089
C            2.92006986484070       -2.35434385723350       -0.14117559226391
C            3.09073252053252       -1.17069620507166        0.55176223928716
H            0.42276681287858        0.78075832420649       -0.47276237408649
H            0.51159064408639       -0.29976763213510        0.91651943117193
H            0.67932954400740       -0.93994294546097       -0.71602337638195
H            2.58820479278256        1.30068229180214       -1.81496877013978
H            2.84251969249574       -0.42118527412621       -2.06404147241454
H            4.10577432467277        0.55449556647909       -1.31925758401472
H            1.59509103590096        2.65722387588279       -0.30940040096514
H            2.00035677246243        4.63566738075978        1.06787089650219
H            3.37388282249887        4.45715319732095        3.10051211523007
H            4.32753655778801        2.28875278978783        3.73396355478422
H            3.30608992671876       -0.18479757998485        5.01980198520064
H            4.75509711951536       -0.28831251662745        7.01190753706941
H            7.19915748891881       -0.22515171809770        6.75292357213459
H            8.19501877784633       -0.05607536028903        4.51153339679752
H            6.73759452325192        0.05059623066830        2.52583187855086
H            5.02945662650259       -2.39402835691903        3.03782148867437
H            4.72609576490097       -4.46065661704235        1.76345548523421
H            2.65812425719135       -5.56771938059087        2.01197335525656
H            2.88059351248312       -7.82885141152125        2.92784967306575
H            4.04552495847689       -6.95949174500105       -1.74201971163166
H            5.81993389927246       -8.27766472105516       -2.19361321584084
H            6.19301643217274       -9.98927187043762       -2.34153974460914
H            6.50395883408222       -9.14950509515849       -0.82398525586133
H            3.36017990708555       -8.72957569186825       -2.88807326787834
H            2.41972082359334       -9.92073966417423       -1.99464321461436
H            3.72698785289841      -10.43957027610426       -3.05659737568491
H            5.11156851999901      -11.96066146118348       -2.21602104674285
H            5.22440385594133      -14.16661393144113       -1.16870960985715
H            4.63103705572211      -14.43248539403374        1.20388039669913
H            3.92881312118762      -12.47618080413197        2.50528288599148
H            1.35562531173993      -10.56382093448926        2.78683322229885
H            0.88131247276131      -10.91159987784343        5.18135157201994
H            2.69698001475898      -10.72658272278650        6.82841063379033
H            4.97996240566391      -10.19275567052059        6.08844532381809
H            5.44404282539029       -9.84609203913864        3.69173547222705
H            2.34665863036529       -2.36895843136209       -1.05026756352638
