83
 energy: -16.927664107682 gnorm: 0.000695676640 xtb: 6.6.1 (8d0f1dd)
C            0.73693294682061        0.24058547470428        0.06037221495668
C            2.24782076806898        0.01418252132337       -0.14724719593051
C            2.58564430552664        0.02777570554931       -1.65088453156076
C            3.01219177828488        1.15522372773825        0.53679779524464
C            2.77990071101217        2.46543746829921        0.14627675964925
C            3.44427168168270        3.52315620172658        0.73296937064714
C            4.36468879695535        3.28485713913184        1.72992934859991
C            4.61301297572964        1.99423644147086        2.13118362937383
C            3.94835715666031        0.91609785909085        1.55036291832527
N            4.23691275321104       -0.40412044049253        1.99151459851903
C            5.20821263146534       -0.61174351902611        3.04325813076302
C            4.84939033084286       -0.45220983322538        4.37916973744545
C            5.77301047774069       -0.65689077913006        5.37897103406183
C            7.06660461074797       -1.02405868206439        5.06262209270986
C            7.43507286622008       -1.18665726368640        3.74125903130909
C            6.51507571570516       -0.98291257635435        2.73787977571485
C            3.56716384971724       -1.52387964319115        1.42903213483718
C            3.85492815380612       -2.80476046886372        1.89763093897678
C            3.21913815909104       -3.90892473043099        1.38265991330259
C            2.28122083495873       -3.75041005468467        0.38939063162832
S            1.39138543176619       -5.13001101464073       -0.34269011521038
O           -0.03905396188206       -5.02249924403151        0.13955336377033
O            1.78812517348725       -5.16490406933764       -1.80365895296850
C            2.15658907438149       -6.53198122930539        0.46710140722010
C            1.74104376811365       -6.92719940800584        1.71449055103395
C            2.36206264507038       -7.99001014298272        2.32720073988219
C            3.40001308229914       -8.67795112294450        1.69932251609986
C            3.81176733237726       -8.28026362196536        0.42106538999578
C            3.17224078754102       -7.20149923177876       -0.17109351045977
C            4.93831189275787       -8.99513339460345       -0.33302791980100
C            6.05210429510664       -7.97235780828589       -0.63163065239404
C            4.36206963395958       -9.55269334080914       -1.64975366247953
C            5.54169457470650      -10.15619560623973        0.46786177642038
C            6.56713475240664      -10.90864657467712       -0.08492099157236
C            7.13565706206932      -11.96613765395390        0.59537183332241
C            6.68066198097689      -12.29381881361606        1.85369978782102
C            5.66595844733793      -11.56131221282198        2.42161375407390
C            5.08473313748681      -10.48801442397935        1.74935584309630
N            4.03372216342703       -9.75850446144911        2.36997755286659
C            3.61746098593409      -10.10620382119287        3.71070241432742
C            2.44688927476136      -10.82908964862230        3.92552889190730
C            2.05227950745239      -11.15446186812305        5.20333290050242
C            2.81860609553366      -10.76617870634855        6.28522083622861
C            3.98242704352995      -10.04932579523170        6.08583906858624
C            4.38029636597199       -9.72023092574230        4.81004404736244
C            1.98704879084370       -2.49497003678923       -0.08457175788533
C            2.61344288770003       -1.36330411564960        0.41685902600130
H            0.41893900490123        1.20010132798804       -0.34383889403862
H            0.49444895704855        0.22568111142637        1.12232750179390
H            0.14774660399502       -0.53356418147443       -0.42850272975551
H            2.31951721261627        0.97853680074471       -2.10974800702987
H            2.05225086275725       -0.75762515253741       -2.18405573144471
H            3.65293906011105       -0.13136659700038       -1.80030856583896
H            2.06588582083022        2.66361829516996       -0.63415622559132
H            3.24409694910761        4.53218775845724        0.41207403364419
H            4.88736115217600        4.10665948532297        2.19162197501764
H            5.33313237581198        1.80370622023558        2.90656174759132
H            3.83792213477566       -0.16984863659076        4.61301786129990
H            5.48632819958524       -0.53141187690259        6.41019563833471
H            7.78843161546784       -1.18385904658781        5.84673311765308
H            8.44425317274555       -1.47422856618457        3.49583464103037
H            6.78965558318022       -1.10864766511120        1.70528823237701
H            4.58504584230988       -2.92251164647328        2.67805209323497
H            3.44955880068201       -4.89281778584781        1.75263833175974
H            0.93390718572001       -6.39904581771133        2.19517958455951
H            2.04817928133146       -8.29909886089344        3.30781070965923
H            3.46253924223648       -6.86854405246729       -1.15231292389473
H            5.67693682403784       -7.13757360996180       -1.22146720370565
H            6.87047630565006       -8.42697569198360       -1.18748747452887
H            6.45748840525157       -7.57212156160699        0.29697174600591
H            3.93276745539707       -8.76094991522534       -2.26166631443080
H            3.57648046289346      -10.27815919999927       -1.44143231707913
H            5.12940163340801      -10.04831605790801       -2.24209359834173
H            6.92864458877026      -10.66391637556117       -1.06860215772017
H            7.93101292129204      -12.53525478654936        0.14282846385977
H            7.11815735572277      -13.12080562378767        2.38883122116905
H            5.30524733032599      -11.81747807036855        3.40156762288221
H            1.85892356052298      -11.12719717908372        3.07522602763316
H            1.14425976068554      -11.71327729458674        5.36009022640211
H            2.50806391756899      -11.02194575699577        7.28494037269321
H            4.57921275580916       -9.74599796069638        6.93039670709654
H            5.28218703626333       -9.15803825754500        4.64244298207061
H            1.25036689968806       -2.40569002646682       -0.86438116069226
