62
 energy: -13.759441693011 gnorm: 0.000618228555 xtb: 6.6.1 (8d0f1dd)
C            0.96753252658552        0.91638392523807        0.21767676930518
C            2.31227453926887        0.32330872484129       -0.23194367920031
C            2.16238145424254       -0.26871481824231       -1.64869427339744
C            3.36361973031082        1.44898981737502       -0.22814166764231
C            3.61927312251422        2.23071659915927       -1.34342789164269
C            4.55555685488548        3.24515489672732       -1.30900604444922
C            5.25443817489534        3.50226340509560       -0.14920710136142
C            5.00532026642897        2.75349217315536        0.97512106816362
C            4.05590793962469        1.73560364629984        0.95605299632237
N            3.83453536503891        0.92714394272312        2.10759239310795
C            4.03502304700120        1.38559528866361        3.44638689809133
C            3.80616026092424        2.70973190163358        3.80675523164163
C            3.98414299372109        3.12226459152884        5.10687309892079
C            4.39052301905964        2.21905850795687        6.06803858763065
C            4.61098721846637        0.90031744143831        5.72612573017497
C            4.42626557073855        0.46679086716754        4.42679170927450
C            4.72795685845237       -0.96765656357173        3.99744030700836
C            4.69412023899719       -1.95360366834284        5.16875332026707
C            3.64964271316608       -2.31589290904532        5.98868884605016
C            3.86388998144263       -3.25132765286640        6.99675807058526
C            2.80695103579245       -3.63004737174989        7.83689926222166
N            1.92905905091463       -3.94211101194465        8.53126109562992
C            5.13395800080565       -3.80632428375289        7.16062935262162
C            6.18342740354009       -3.44726585631344        6.34306862535842
C            5.96262730918685       -2.51513053301276        5.33936285648670
C            6.87999470720278       -1.95950950340802        4.33654093192272
C            8.23010847065967       -2.18541552159892        4.10531255022133
C            8.85522951644474       -1.50414500711258        3.08156323024512
C            8.15884043153707       -0.59738816896254        2.27967089832934
C            8.79831375917558        0.10119945121163        1.24611007127762
N            9.31568546562203        0.68831290817467        0.38735214103136
C            6.80766912696157       -0.37870545277954        2.51708942518849
C            6.18156856730371       -1.05544332721409        3.53717125966016
C            3.80999513135071       -1.38847420953342        2.85063133933544
C            3.42601723818020       -2.69986098434017        2.65782923395172
C            2.67842096305332       -3.05187028852162        1.55483474710770
C            2.32498966294912       -2.09831031502579        0.62111013168571
C            2.71307574281888       -0.77688242351442        0.76611812443091
C            3.44470544782695       -0.42431072238850        1.90521799000769
H            0.64734767364633        1.70993245656094       -0.45618221041902
H            1.05347029307715        1.33739575889170        1.21875628097303
H            0.19243523226080        0.15141849682077        0.23854468724881
H            1.84475494691468        0.48704646543794       -2.36416289725338
H            1.40657335282792       -1.05094583292009       -1.67607708783429
H            3.10604028910233       -0.69146302061093       -1.99055864084224
H            3.07996832285539        2.05486364646567       -2.25630109119407
H            4.74450374490600        3.83377394368263       -2.19162426619043
H            5.99689891292679        4.28303658438134       -0.12586564317718
H            5.56359942359691        2.93089614441465        1.87742423485886
H            3.46876929862636        3.40353063290154        3.05707194959318
H            3.80492537594271        4.15032741140197        5.37536223502910
H            4.53657242394301        2.54276711718132        7.08537930931498
H            4.93907471141890        0.19727936871142        6.47151494603770
H            2.67594917996916       -1.88199774435198        5.85079512630667
H            5.28293044223210       -4.52860953488193        7.94494593605168
H            7.16099579731688       -3.87735729828572        6.47050324260991
H            8.77113879533927       -2.87974430689818        4.72338685816272
H            9.90201536879660       -1.66378042350337        2.88753355489786
H            6.25327646142951        0.31745300832900        1.91581237784265
H            3.72534343777357       -3.44745522418421        3.37143092253397
H            2.37437765204707       -4.07668990749158        1.41868939725825
H            1.73127995591845       -2.39369523719507       -0.22469685739572
