71
 energy: -14.133175633476 gnorm: 0.000657976920 xtb: 6.6.1 (8d0f1dd)
C           -3.29639588595814       -2.43910466807756        0.22936471890457
C           -2.69235733480361       -1.08454149513005        0.19721117806818
C           -3.40701165151049        0.13928321654506        0.22196124316573
C           -4.83754338064465        0.23167565877922        0.26834401360544
C           -5.55967264760439        1.37247365451026        0.29808829114253
C           -7.00415040887510        1.45096509336157        0.34125217663592
C           -7.62403584435602        2.70501415319346        0.32762477855373
C           -8.99502698395973        2.81835683166597        0.36770213583444
C           -9.78286751308435        1.68579880509018        0.42376322530385
C           -9.19292657794828        0.43734221095167        0.43957818463672
C           -7.82203570539311        0.31710200204669        0.39865150635265
C           -2.44620325598726        1.20423676115891        0.18780602059590
C           -2.63232998123251        2.66622637365858        0.22287242464303
N           -1.25443364130160        0.62232768218114        0.12966759113655
C           -1.31966353920492       -0.77897893508253        0.11236228794286
C           -0.17697296905528       -1.60675212984755        0.03728131260975
C           -0.28504478189769       -3.08464273724117        0.01403433245141
C            0.03931129528273       -3.84488898220212        1.14212340663796
C           -0.06465222256648       -5.21638916007648        1.11855953263943
C           -0.49282181136203       -5.86001289864138       -0.02624878998913
C           -0.81728972271344       -5.12706757193972       -1.15130168172662
C           -0.71557542072612       -3.75525447798959       -1.13515878395382
C            1.07476758302160       -0.95290803911952       -0.00859542148925
C            2.38762055375659       -1.45279233885784       -0.11456844812862
C            2.78496166778086       -2.87826021481497       -0.21870205536402
C            3.27499867159832       -0.34812102865835       -0.07834388567979
C            4.70379299598582       -0.46589671770871       -0.11962204002262
C            5.58681863917936        0.55513813180850       -0.08098045755306
C            7.02725815919237        0.42054923388454       -0.12240784197973
C            7.82691761501603        1.56363771517983       -0.01805942260134
C            9.19979600549855        1.47371307683112       -0.05384556949600
C            9.81049939624866        0.24353907823821       -0.19607174329806
C            9.04123846183955       -0.89823807328001       -0.30300148676356
C            7.66742659935183       -0.81521155559531       -0.26706263433120
C            2.48150278199941        0.84384932699274        0.01156128529339
C            2.88156663154768        2.26192178029393        0.05917383468089
N            1.21681517811800        0.44172324942468        0.04577329445318
B            0.04722019186985        1.42049420672187        0.11734672707334
F            0.06984981287932        2.24442310143697       -1.00567061534220
F            0.14070327136763        2.16216973551543        1.29282577152135
H           -4.23369696683225       -2.44383353590698        0.78534058254212
H           -2.63440166322793       -3.15307379663410        0.71834555873080
H           -3.49838079532983       -2.79863177880179       -0.78002045108476
H           -5.37057509271149       -0.69991739916641        0.26505437471817
H           -5.03883418711158        2.30987569112287        0.28721958682022
H           -7.01235863476817        3.58982549803668        0.28310084594418
H           -9.45474581729585        3.79302450370279        0.35453461065725
H          -10.85635459398843        1.77612118545579        0.45544120664495
H           -9.80876070392544       -0.44602187170342        0.48476859543204
H           -7.37877979145219       -0.66214842137949        0.41400411927335
H           -3.13357900198526        2.97852627025301        1.13925301126309
H           -3.20390320108495        3.01263477454685       -0.63836507014672
H           -1.66103314823942        3.16217650132594        0.19392392456628
H            0.36890187317218       -3.33736454997177        2.03225579856477
H            0.18759700509397       -5.78983590015753        1.99544440090159
H           -0.57463874493883       -6.93451888900973       -0.04156109721922
H           -1.15137496776847       -5.63075037816640       -2.04352302242569
H           -0.96452066022871       -3.17861069588489       -2.00924792666082
H            2.02392543771690       -3.46131562236810       -0.73641710521783
H            2.93316823280712       -3.31368827496110        0.76987853670006
H            3.71035293970791       -2.99289847846851       -0.78284416798718
H            5.09284154894742       -1.46492477882445       -0.17099935589713
H            5.21066616712341        1.55689710986668       -0.00919997913897
H            7.35356358727821        2.52413402093861        0.09343592311618
H            9.79959462019473        2.36522859127183        0.02960485865279
H           10.88568118553516        0.17466871664958       -0.22426850865342
H            9.51859960666903       -1.85790963482953       -0.41619368431292
H            7.08335672133241       -1.71326280553277       -0.35677544213164
H            3.47898826282255        2.47425306887829        0.94599283096310
H            1.99331810933300        2.89391047429631        0.10217874970635
H            3.44316844181008        2.54416035021070       -0.83159010047853
