55
 energy: -11.062183278335 gnorm: 0.000929893896 xtb: 6.6.1 (8d0f1dd)
C            7.15198246741768        0.03844581352418       -0.18037670756910
C            6.07836499682775       -0.69305125277851        0.53259732711023
C            4.76220274696007       -0.25687866188483        0.63521479322533
Br           4.08048269218500        1.35561100064281       -0.07166447068511
C            4.02218320680763       -1.22439948778029        1.33723473936224
C            2.58141336086124       -1.22128940638632        1.64021315174901
N            4.88462448423952       -2.20618620051852        1.64581697272667
C            6.16949676871753       -1.94004282663575        1.21024700416157
C            7.25303779154863       -2.84677773650972        1.38590530637719
C            8.56200589355096       -2.58658298012045        0.82763490267939
C            9.30393632690603       -3.35807993472898       -0.11729923905931
C            8.82802231146014       -4.53738954775511       -0.84029825905844
C            7.46375617946241       -4.80488131071615       -0.93663546699787
C            7.03178147235967       -5.92561063923912       -1.58764098219936
C            7.97981069031394       -6.75538054362813       -2.13807726485026
C            9.30440129126674       -6.41824551521552       -2.01195274233261
N            9.74984663812915       -5.34315343029533       -1.38503556842949
N           10.52362700882547       -2.84318237388888       -0.28169475478796
C           10.60192268971831       -1.74867766484403        0.52716107662046
C           11.68137625096917       -0.89197548242563        0.72332854797441
C           11.55178409238933        0.13150362525868        1.62976512304847
C           10.36848218283804        0.30205951309200        2.34597936324138
C            9.31500103271604       -0.54530916900024        2.14573645866200
N            9.42786165028103       -1.54920182942648        1.22642720904362
C            6.94853921828520       -4.05680864732760        2.07465784781105
C            7.77065071363542       -5.14208143434068        2.48590056290511
C            9.23559701641010       -5.28680369753258        2.31621080981696
C            6.94757691439928       -6.08401275472178        3.09243543934651
Br           7.50583404298750       -7.74942023065596        3.78412811131939
C            5.63136382091682       -5.58998150448328        3.10141263794246
C            4.42009803872613       -6.24518671246879        3.62207975504262
N            5.67540127502465       -4.39258749347419        2.49577765464543
B            4.44608746993756       -3.50858240605182        2.30999183231316
F            3.88703709086812       -3.22784769204073        3.55167083975203
F            3.54092820521403       -4.15928111695440        1.47919013791149
H            7.63159727338303        0.76312010569131        0.47723710848134
H            6.74710037522787        0.57908552002127       -1.03610112748064
H            7.91646920692416       -0.64325794080162       -0.55227117659172
H            1.99329079623804       -1.28995541643408        0.72513167756249
H            2.29651338869862       -0.31106121113835        2.16781373580400
H            2.33025644699789       -2.07576551360858        2.27036329356602
H            6.75210367234629       -4.12967455933046       -0.49740640737353
H            5.98092754730552       -6.15251346974179       -1.66398291694511
H            7.68764121460418       -7.65122893907195       -2.66079945978324
H           10.05575187837433       -7.06040325453580       -2.44525129562194
H           12.59096293049978       -1.04994487516859        0.17225629900574
H           12.37599719258902        0.80543302787310        1.79549627499190
H           10.28567714638533        1.10206678631534        3.06258689576036
H            8.39439614046010       -0.44811234186053        2.69232660301707
H            9.73273438166301       -4.31716975124518        2.34778311007203
H            9.47221642036610       -5.76136315749502        1.36380972151582
H            9.65799151135757       -5.90193652785003        3.11083534882035
H            4.59766378561654       -6.66204834191860        4.61361482369475
H            4.10178553779882       -7.05036810469779        2.95956002095406
H            3.60544512001315       -5.52272230368491        3.69408532173577
