67
 energy: -11.080794490140 gnorm: 0.000583272277 xtb: 6.6.1 (8d0f1dd)
C            4.76062652472461       -2.26373384024021        0.57328121590760
C            4.37516789511324       -2.88532883044918        1.85820255967237
C            3.05869452495631       -2.81372846201472        2.44770557726624
C            1.96745125034713       -2.17245254546475        1.92325975232477
C            0.78047328753964       -1.69638318115892        1.73696336973892
C           -0.46651674012024       -1.19649433610316        1.53861681193723
C           -1.49247758175205       -2.00042141438892        1.01045495657782
C           -2.74883472722229       -1.48811720677371        0.81009334271096
C           -3.02249352345528       -0.16917472831047        1.12615131388652
C           -2.02829104465528        0.64034650693859        1.64628107205921
C           -0.76750591906980        0.14111790677329        1.85181744221227
C            3.09170136956282       -3.53064690458140        3.68036866545310
C            2.00208578463561       -3.77068324152401        4.64002636185827
N            4.33553273196407       -4.00198184704181        3.79179544065056
C            5.17611119325158       -3.64704459577665        2.71047247491007
C            6.53621677449945       -4.04408647415880        2.62745071843682
C            7.38617224645678       -3.67915039947812        1.46732431125500
C            8.25767801041255       -2.58531635408404        1.52727058184745
C            9.03981637269483       -2.24943125483280        0.44830088597468
C            8.97579876744819       -2.99214575807274       -0.71337734780896
C            8.12413995700411       -4.07529203996889       -0.79452644368321
C            7.33727009543690       -4.41737788440771        0.27894952249062
C            7.03386693797211       -4.81741233090508        3.70466950338018
C            8.27978407828639       -5.39842112481705        3.94845826050367
C            9.47841419998805       -5.33033720062598        3.08326272768540
C            8.20927951095104       -6.08726478781700        5.21628527826984
C            9.21442341457319       -6.80596073089995        5.82298306399552
C           10.08839340592409       -7.46684527783221        6.38841262186722
C           11.05762945900098       -8.22503004374823        7.04251266147742
C           12.01542970613166       -7.61723145252366        7.85374744204598
C           12.96781265443832       -8.36982103373613        8.50232318773853
C           12.98457576235200       -9.74185645745904        8.35640005755990
C           12.04425724036799      -10.36091905303322        7.55860364470354
C           11.08992997317517       -9.61277977051047        6.90786785354112
C            6.90640551694329       -5.91378401193010        5.73005832977389
C            6.31546093894241       -6.45719010706555        6.96578646720993
N            6.23882226244167       -5.18040996421299        4.82519708915586
B            4.76483248423886       -4.84998700734364        4.97659303559725
F            4.57319406579705       -4.13634336860133        6.14496684209810
F            4.03353333132507       -6.02406569793402        4.98409635498335
H            5.67131601764154       -1.67509612665681        0.68170604519653
H            3.97496216876372       -1.59766145133471        0.21548730254235
H            4.92822720070126       -3.02226979432464       -0.19103429173840
H           -1.27628016511288       -3.02608735713999        0.76239919540439
H           -3.52743623348880       -2.11434886219579        0.40343958165203
H           -4.01237609005343        0.22898422103346        0.96584420245494
H           -2.24688957844906        1.66841212305222        1.88932488808513
H            0.00880815167514        0.76986868625059        2.25460634886209
H            1.42447550871911       -2.86226628864323        4.81164890046753
H            2.41130534976557       -4.10223118140804        5.59642144694808
H            1.33038685385422       -4.54744228399015        4.27354017327429
H            8.30161415720859       -2.00410761307054        2.43216169223797
H            9.70420549901542       -1.40237851796303        0.50730714232740
H            9.59099529482788       -2.72571342601385       -1.55828495860789
H            8.07730157117894       -4.65409962707203       -1.70291517244433
H            6.67456434719655       -5.26345648271237        0.21932534080254
H            9.89284542901700       -4.32244510810432        3.07183964360032
H            9.23678606333752       -5.61363627867273        2.05912368865175
H           10.25582908261338       -6.00633556729250        3.43933946709852
H           11.99952895424610       -6.54654205064509        7.96902683925716
H           13.70263129229819       -7.88708989409725        9.12732341234332
H           13.73166126853961      -10.33020167722319        8.86640137364956
H           12.05720552780479      -11.43370514231667        7.44652308843574
H           10.35422856583672      -10.09489133810751        6.28634731854876
H            7.03151785487773       -6.43878162674518        7.78742948786151
H            5.98296381271635       -7.48461637254539        6.81453900971866
H            5.44612990022289       -5.86417465840012        7.25671182429468
