64
 energy: -10.898621874727 gnorm: 0.020716484425 xtb: 6.6.1 (8d0f1dd)
C            1.01165676993866       -0.01440693630867       -0.82794844663588
C            2.32542068711030        0.00835568256915       -1.10599577411953
C            2.93832068604185       -0.02789300374824       -2.39244247688490
C            0.79064388500169       -3.20554418928935       -1.31716896062995
C            0.06013160530465       -3.40940865419026       -0.30173325326131
C           -0.78064665798328       -1.00049893064074        2.19604449186739
C           -0.72288376307327       -3.46564859124298       -1.72711319755728
C            2.76276037968956       -3.05182493567666       -4.25247733884657
N           -2.16686659206065       -3.54675940510634       -2.59362157544307
C           -0.97685875034431       -3.70675740132009       -3.37554134973163
C           -0.87139310702456       -3.93905652224165       -4.62072265538511
C           -4.41659537064252       -2.08637423622488       -3.05025195846988
C           -5.56234431874894       -1.32842458033106       -3.04507770551498
C           -5.51698401700393       -0.50598051220911       -1.92283596008865
C           -6.53900156127518        0.46676741862091       -1.47962067922122
C           -4.29348553462019       -0.82688779348894       -1.28316764991732
C           -3.78899176512395       -0.23639843664919       -0.02701108474591
N           -3.62746769628318       -1.80746231321628       -1.97563964738589
B           -2.17824494195884       -2.36555613362856       -1.42675749763636
F           -2.50843826094686       -2.72495786026536       -0.10865723804340
F           -1.44644002322973       -1.15774591057549       -1.52494264202599
C            4.30587616817030       -0.07634030661231       -2.24298931569302
C            5.32779233159553       -0.16258921868162       -3.17668513592961
C            6.62679263248521       -0.23819258486324       -2.71168046747215
C            7.85721360201917       -0.34962661725938       -3.39444368301017
C            8.87904055842656       -0.40637834702495       -2.44286070524446
C           10.32982277730185       -0.50373020902394       -2.73032840528197
C            8.29920236968777       -0.31696715970334       -1.15974622947276
C            8.96116508652350       -0.32941582116795        0.15511866643127
N            6.96593891777297       -0.22399697215817       -1.35073460087008
B            5.93551511717493       -0.11969079031915       -0.22608293890718
F            6.16625838276204        1.04071499996867        0.50207843708438
F            6.02430773108963       -1.24746307737068        0.58167011474909
N            4.54018380870834       -0.05639626419039       -0.84665699218608
C            3.42252322743438        0.00290811987638       -0.13073509606625
C            3.34598527036330        0.00018688362172        1.33654225292608
H            0.02260357252910       -1.00180183389554       -4.03034787291703
H            0.29283634914164       -0.09503225165040       -1.61531896206386
H            0.65646704170303       -0.03556563330341        0.18053828055919
H            3.97405227917174       -2.80632494958495       -0.95321347460878
H           -1.24231505587468       -1.65007212085711        1.49086553599249
H           -0.29345036584410       -0.35927933810409        2.89100718447049
H            2.83380951347964       -2.15603168873005       -3.67572171290545
H            2.07087112868033       -2.90963885852699       -5.05142488441591
H            2.43341564763042       -3.85306405472474       -3.63032375263207
H           -1.13393312496385       -4.07338575433086       -5.63694056536570
H           -6.35372564581667       -1.37073067609211       -3.77927720812401
H           -7.33567638683188        0.55873739752949       -2.21843119862999
H           -6.10032994269814        1.45418714878037       -1.33693201661414
H           -6.98795127530910        0.15368865645411       -0.53679813199228
H           -4.30776538350540       -0.66020672058554        0.83311275927003
H           -3.91956172159597        0.84562930329421       -0.01600554193661
H           -2.72669005057630       -0.45163873786669        0.08322636903415
H            5.11100752365281       -0.18751097670746       -4.22756849618942
H            7.98295412343099       -0.38916298503147       -4.46195560932336
H           10.50439988012431       -0.81500202539828       -3.76052594641235
H           10.80779570491364       -1.23263673537110       -2.07553275823764
H           10.81988585988405        0.45865416786717       -2.58080358166502
H            9.70467023585626        0.46452760835580        0.22648998071524
H            9.45401973618697       -1.28485094973022        0.33493813351986
H            8.22291857495233       -0.17615539016387        0.94379083516278
H            4.34966483287459        0.04520034526723        1.76164724913460
H            2.86532349930556       -0.90875179793726        1.69909991655467
H            2.78330381639854        0.85981946602229        1.70079216374863
