55
 energy: -10.064138154961 gnorm: 0.004210921444 xtb: 6.6.1 (8d0f1dd)
C            1.19178038570070        1.97932690090124       -1.94824955101850
C            4.31973233177955        2.59547859826460       -0.26857737501586
C            4.18631336184520        1.47819877332419        0.54342689171137
I            3.36930089212876       -0.42304817200609        0.71617356781480
C            5.08265730713877        2.72274428762361        1.19546588296988
C            7.65222265063757       -1.08547007609095        1.23117322586854
N            6.15485874867019        3.35050833215903        2.33986739277025
C            6.70901177477013        2.58573480490599        1.25506701074875
C            7.95257493159787        2.30383526704607        1.04288248967977
C            9.28481718081334        2.03794959058649        0.87829508118622
C           10.35972522141719        2.23893117334653        1.72878868445514
C           10.33860591099161        2.82312499690137        3.07221449387179
C            9.16274362846153        3.31962524903304        3.62394868922055
C            9.17007921462673        3.85023589565339        4.88335292285341
C           10.35833061526565        3.87419425173601        5.56793589028098
C           11.47810194166713        3.36639389919041        4.95621218918233
N           11.49784975018487        2.85129322792692        3.74069624801366
N           11.51751334677024        1.76910936369421        1.15796996893472
C           11.22181390540111        1.28960080139428       -0.00368540092207
C           12.17773539146684        0.65841030275312       -0.94866614122656
C           12.27214174523512       -0.79320259390981       -0.96818845467654
C           12.37618507740155       -0.94181070322232       -2.32035504595139
C            9.20622206021732        1.01831081050937       -1.34736311020831
N            9.82743866913239        1.41004158417718       -0.26853948118148
C            6.02770887224608        5.05763455507412        4.49084188466452
C            5.75350400018680        5.81600900868095        5.62185466419107
C            6.71381985920561        6.63733412942711        6.40068981641073
C            4.39711219255526        5.65875379854292        5.89913215643623
I            3.34412047556399        6.51220614053493        7.47221077536566
C            3.90688750921027        4.80478483349011        4.89187380186401
C            2.50445349477431        4.36301284911762        4.74818915780991
N            4.91063370933656        4.43229046221700        4.03123546767924
B            4.52914199647053        3.50079528996876        2.73741037875343
F            3.60903880022240        4.37549152963446        2.10949114697037
F            3.92149949333243        2.38837388257871        3.34423089290881
H            0.40248189320356        2.43289212114830       -1.39067128041192
H            2.12434366217740        2.15856739821702       -1.45994810524319
H            1.01703150265964        0.92868794610846       -2.02300953176165
H            6.63824167708183       -0.75181350536123        1.22545525846320
H            8.04580219831242       -1.02216208639889        2.22210267024975
H            8.23117431606882       -0.46845597691269        0.57935946330602
H            8.24099571477327        3.28845485951553        3.07183584711295
H            8.26586166564705        4.24202736889073        5.31586469499450
H           10.41177155796925        4.28135463311659        6.56439964457317
H           12.42020092121406        3.37565692330720        5.48297785956616
H           13.01973225823071        1.26691768691214       -1.29145161436892
H           11.61370709775536       -0.13402908988454       -1.76127201176129
H           10.85067331481527        3.33462475063100       -2.24854839840122
H            8.30187655519493        0.96430951202432       -1.83802342239183
H            7.66175014030944        6.73205561974259        5.87006146061297
H            6.91025154916781        6.18404903828163        7.37287455090130
H            6.31896727336727        7.64050789924290        6.56543527015791
H            1.83034411041617        5.21825579601092        4.70308237149275
H            2.21041188219888        3.73356285975439        5.58828087283178
H            2.38303443451201        3.78464320743183        3.83102807088424
