91
 energy: -18.021620472086 gnorm: 0.000380375867 xtb: 6.6.1 (8d0f1dd)
C           -3.34303258543418       -2.64568246754397        0.00892626741082
C           -2.73776547645349       -1.29345369364211       -0.04567291176220
C           -3.43512469185266       -0.06879994563934        0.01203050544463
C           -4.89048637771030        0.10968915498749        0.11776348262350
C           -5.65950944136585       -0.68891672119684        0.97258938295162
C           -7.01493792866703       -0.52026541118939        1.07037363624496
C           -7.68014283106132        0.45979032824310        0.31782903947930
N           -9.06171087230397        0.62866686082108        0.41238533123929
C           -9.87847285427320       -0.20436066641696        1.29510278034406
C           -9.76738263238255        1.64082068998202       -0.37358808360054
C           -6.90609401724132        1.26358265428660       -0.53316663052469
C           -5.55065100118673        1.09330209269339       -0.62799328966440
C           -2.47019395624059        0.97986895983982       -0.01203671823437
C           -2.67945768767888        2.43675640062729        0.06515666873221
N           -1.28028937308471        0.38639728473644       -0.07667262904712
C           -1.36254424334627       -0.99270168747021       -0.11623059648460
C           -0.21377206937130       -1.84391884322200       -0.13660078635103
C           -0.32989220005886       -3.28411624599556       -0.05269440047735
C            0.04654344009945       -4.15812873033100        1.02199349967784
C            0.54811265531954       -3.74989535386035        2.33709066599342
C            0.39681780538273       -2.43652602635095        2.77469807424948
C            0.89347813840417       -2.05977742120546        3.99147671365254
C            1.52916420845474       -3.01344807270803        4.74908416355454
C            1.63123871528238       -4.28960182154308        4.25152204920078
N            1.16355013228851       -4.67933318354876        3.07885628817448
N           -0.11393170344140       -5.42574803856323        0.66371686200530
C           -0.58334909033892       -5.41961954560958       -0.61026113371018
C           -0.88889117739344       -6.51023454501171       -1.42929351042815
C           -1.31556563428674       -6.27238947129130       -2.70734439462243
C           -1.43622810956351       -4.96343141374210       -3.19003725754116
C           -1.13623750386423       -3.90533795339934       -2.38751702739599
N           -0.72721101974370       -4.13353260346095       -1.09691629440042
C            1.05502927841001       -1.18288109937011       -0.12585437332161
C            2.36778963460498       -1.69600870438096       -0.15679511998568
C            2.74657026786427       -3.12973498465870       -0.16661588702921
C            3.24965230994325       -0.59817621606775       -0.07382451736070
C            4.72079525172534       -0.64465887043819       -0.04512101710042
C            5.44362522713636       -1.39248795742124       -0.98217382876751
C            6.81220661037828       -1.43014349149865       -0.95199572373325
C            7.53661694619256       -0.71777834227212        0.01629445525379
N            8.93068027645369       -0.75759803454772        0.04951824599715
C            9.70004117320332       -1.53781249907152       -0.91980548625105
C            9.69608821506060       -0.02423505251842        1.05775573082531
C            6.80922873116827        0.03864224070562        0.94811455491269
C            5.44088088730545        0.07508930756060        0.91548345435967
C            2.46173333662858        0.58744949056659       -0.01324908659049
C            2.90536561360217        1.98875395231565        0.08723906878717
N            1.19216008045879        0.19043460532458       -0.05179911460294
B            0.02612853645831        1.17506865714110       -0.00389166368957
F            0.10398189198383        2.03936377796961       -1.09237294740866
F            0.07032915179113        1.86631352378987        1.20466327856119
H           -4.38484499069422       -2.62488190593136       -0.31137002259744
H           -3.30184253149228       -3.04870614086203        1.02129781388986
H           -2.81870264917456       -3.33870707036316       -0.64606959600347
H           -5.16467587640133       -1.42635126601930        1.58028158449289
H           -7.58024569709407       -1.14554454592268        1.73786903601119
H           -9.54880713335624       -0.08963331103156        2.32599175723713
H           -9.79101879733591       -1.25028907952536        1.00698901218276
H          -10.92855166605958        0.07550369872113        1.24225879485351
H           -9.59692415380575        1.47445885151801       -1.43560268581440
H           -9.41204123232919        2.63431878785728       -0.10655111057244
H          -10.83979576137706        1.60356408907003       -0.19380420357153
H           -7.38767576118652        2.02345141207319       -1.12204810652473
H           -4.97716438560281        1.70497971213239       -1.30234632805660
H           -3.50383850080268        2.68218085297722        0.73516794746284
H           -2.89347355372035        2.85125958479207       -0.92001406069535
H           -1.77827599905162        2.92307865500661        0.44096333073666
H           -0.10781885920873       -1.71792977866179        2.15528789593319
H            0.79189047493263       -1.04570421857646        4.34241730645971
H            1.93794397336398       -2.76496262715816        5.71473224623408
H            2.12678565995034       -5.04632575899059        4.83991952467436
H           -0.77895912176214       -7.50836349162319       -1.04489256371876
H           -1.55600967696591       -7.10065050170375       -3.35336845012138
H           -1.76540877807927       -4.79466394371466       -4.20187625715935
H           -1.21118329161484       -2.88950197155500       -2.73121382907421
H            2.12941207051146       -3.69095542506858       -0.86882366768777
H            2.61851710143214       -3.56925314391137        0.82261101107326
H            3.78771573006790       -3.27079174637205       -0.45192528324756
H            4.90729752072344       -1.91604961029061       -1.75456073713314
H            7.34290446663109       -2.01067364591911       -1.68505101271922
H            9.48937118708296       -1.19032878835783       -1.92948390756259
H            9.43728067393301       -2.59121997787431       -0.84299647779022
H           10.76952643167562       -1.44137267718189       -0.74477002033433
H            9.41278301793530       -0.35576953615028        2.05496461201655
H            9.50341773801765        1.04324588927996        0.96851975376690
H           10.76511717848258       -0.18723511032262        0.93793445198371
H            7.33687652260787        0.59610555625405        1.70102207867395
H            4.89815758048646        0.64673243637020        1.64816314022012
H            3.81090352638231        2.15860329372971       -0.49577386181691
H            3.10212804713407        2.25936675289277        1.12466678025327
H            2.12679547848853        2.65427083401461       -0.28780566554654
