73
 energy: -14.606834209896 gnorm: 0.000576893127 xtb: 6.6.1 (8d0f1dd)
C           -3.35150791031072       -2.66771921996727        0.18293991363341
C           -2.72044793765575       -1.33334846222543        0.04478848381959
C           -3.39751787304232       -0.09185545534306        0.04008325767569
C           -4.84571520324312        0.12114053019974        0.13311404080917
C           -5.64682318663328       -0.65774114068362        0.98046812798101
C           -6.99730409077200       -0.45693408510529        1.06191384939872
C           -7.63210492694623        0.53807761710788        0.29822952892769
N           -9.00446415224807        0.73740250914732        0.37252857581671
C           -9.85012640097446       -0.05138529543615        1.26888925335043
C           -9.68264004839196        1.74135975389434       -0.44777667176522
C           -6.82643173724751        1.32329226873378       -0.54462368151972
C           -5.47608931239857        1.12086635490401       -0.62156336636831
C           -2.41164055371024        0.93640820734343       -0.04447836814396
C           -2.58615117352693        2.40009903607894       -0.03576664307586
N           -1.23488548189195        0.31819871294110       -0.08315460486171
C           -1.34226044345481       -1.06308109183816       -0.05165250025166
C           -0.20591962295769       -1.93094079919360       -0.05791823925007
C           -0.33730915969224       -3.37015187372583        0.00607452228097
C            0.11714523853960       -4.27470611835178        1.02066998159970
C            0.69090043979345       -3.90844960390517        2.31717265993378
C            0.54343976027171       -2.61590980410775        2.81426194455567
C            1.09613623558212       -2.28000532518099        4.01857095967245
C            1.78444558153632       -3.25244653582491        4.70347303810218
C            1.88055956284769       -4.50543469475972        4.14981367024098
N            1.35826474108914       -4.85626672511017        2.98777092826387
N           -0.05811195531303       -5.53320724093856        0.63171596463070
C           -0.61442605920128       -5.48953893534966       -0.60814303725061
C           -0.96917738930432       -6.55392585078764       -1.43828555436166
C           -1.48760196666318       -6.27715106324398       -2.67574159828320
C           -1.65137931792125       -4.95597388969444       -3.10234586720077
C           -1.30224067609026       -3.92185103034761       -2.28554113777205
N           -0.80162818433349       -4.18970804290692       -1.03801273335655
C            1.06933534884817       -1.28990276524454       -0.08854417685738
C            2.38714226019208       -1.81758774277218       -0.15914090685837
C            2.78437142977408       -3.24501786516799       -0.22075858691489
C            3.26182983603995       -0.74020955124529       -0.15393540469030
C            2.51660938768551        0.44989306072368       -0.10216277369086
C            2.99226290327784        1.84494565442665       -0.10546689852705
N            1.23036448311977        0.07930103382814       -0.07480837596612
B            0.08461777883816        1.08736958306600       -0.05414375663170
F            0.16659971256913        1.90427909060021       -1.17807291796871
F            0.15346515279754        1.82579878153070        1.12427234804356
H           -4.36494671066401       -2.66658539645480       -0.21890798718993
H           -3.39520272803699       -2.96943664235741        1.22982261009623
H           -2.79267801845740       -3.42959933416503       -0.35606210510725
H           -5.17857539786605       -1.40267669721432        1.59935270845162
H           -7.58565935017320       -1.06818212180599        1.72237892098451
H           -9.50814782649856        0.05792125199361        2.29629332920732
H           -9.81068289581517       -1.10281590986503        0.98954690532779
H          -10.88720533387223        0.27482842044871        1.22203895047549
H           -9.47621292781425        1.56383789091975       -1.50135308679246
H           -9.33646427224918        2.73749443206749       -0.17933333680450
H          -10.76047537191484        1.70490042679786       -0.30540090774017
H           -7.28200352800359        2.09507111875862       -1.13858309859145
H           -4.88218222273170        1.71627550793363       -1.29234199899327
H           -3.39255479087164        2.69804748700814        0.63476768043104
H           -2.80542598364998        2.77203206247076       -1.03658611342249
H           -1.66745936163997        2.88194183404671        0.30171715834533
H           -0.00531754416568       -1.88364707075420        2.25065176100842
H            0.99658735622541       -1.28324551702514        4.41640501138370
H            2.23796883319805       -3.03593099274546        5.65671005641659
H            2.41655838230499       -5.27674848955631        4.68105927788787
H           -0.82458058937706       -7.56321072693349       -1.09696732892194
H           -1.76655456318060       -7.08572458831741       -3.33111374103175
H           -2.05262451978949       -4.75556635979238       -4.08182837952424
H           -1.40903526704867       -2.89574605472351       -2.58774713510333
H            2.08399814378521       -3.82018600230222       -0.82691342365747
H            2.81126366028950       -3.68519696235593        0.77628236770631
H            3.77479742508585       -3.35602332120373       -0.66288181582790
H            4.33568612237479       -0.80387775319772       -0.19726519644738
H            4.07791761215656        1.89692452756602       -0.02086431419073
H            2.55219074284721        2.39409810822296        0.72765506555610
H            2.69063583667235        2.34499488645264       -1.02631508109498
