75
 energy: -15.530409705489 gnorm: 0.000559241856 xtb: 6.6.1 (8d0f1dd)
C           -3.35339597843834       -2.65818969034047        0.10966155830649
C           -2.73866919505783       -1.31192762244942        0.02610632171579
C           -3.42812674464621       -0.08262918801983        0.08894215190610
C           -4.88384897253213        0.10352723576707        0.21895718633115
C           -5.62620498903228       -0.63891495942365        1.13940711039869
C           -6.98518295590916       -0.45734611833414        1.25978346991541
C           -7.63372787393135        0.46910415432347        0.46760902448098
C           -6.91684940087703        1.21610554231598       -0.44583414822890
C           -5.55774276067524        1.03808222224647       -0.56948569261523
C           -2.46164318873230        0.96163512113310        0.04793276944430
C           -2.66911545143768        2.41856452470595        0.12301180401230
N           -1.27358206615116        0.36441144284931       -0.03360901611380
C           -1.36335436360557       -1.02012917416744       -0.06622304965651
C           -0.22122879783460       -1.87523921020410       -0.10018396172615
C           -0.34521385761469       -3.31652574857806       -0.02622580559273
C            0.06023291278158       -4.20161164086795        1.02291935866747
C            0.59684518543392       -3.81368181909894        2.32762835577017
C            0.46480697830020       -2.50502038435546        2.78748111929404
C            0.99235043600911       -2.14903337229290        3.99680374996148
C            1.64061810716180       -3.11754708251069        4.72597961558553
C            1.72338020059694       -4.38656147671473        4.20885093389732
N            1.22451832537694       -4.75743114896018        3.04230966993921
N           -0.11268483016644       -5.46878276244385        0.65320027277973
C           -0.62100180790038       -5.44546503263530       -0.61171862170603
C           -0.95424763869452       -6.52090918877230       -1.43166109677186
C           -1.42218166590185       -6.26350032703490       -2.69619748020931
C           -1.55324408211121       -4.95239697123656       -3.15383125771555
C           -1.22297230570512       -3.90444892469795       -2.34222043972181
N           -0.77557400129577       -4.15388282427818       -1.07465359291023
C            1.04944548564229       -1.22390232578815       -0.10743441134813
C            2.35872643746937       -1.74265537146216       -0.16152451348756
C            2.73785034542520       -3.17537615608169       -0.20067163919158
C            3.24770498379559       -0.64975721021022       -0.08812493532524
C            4.72166710199788       -0.70846324644375       -0.07362615928584
C            5.42756975141543       -1.38879057561312       -1.06767958380112
C            6.80294211835909       -1.43636756556506       -1.04687273564950
C            7.50366340498296       -0.80473951006909       -0.03844830620035
C            6.82353990270800       -0.12075384950012        0.94951482915592
C            5.44839651607453       -0.07020328454520        0.93311823471483
C            2.47138928614740        0.54075633280548       -0.01655703082088
C            2.93193397490276        1.93651626726309        0.07959614191194
N            1.19715682848430        0.15418420910852       -0.03505576302016
B            0.03773605155512        1.14545089348569        0.02182249654389
F            0.10930109890292        2.00462225228123       -1.07030666514223
F            0.09875690280950        1.84065423384251        1.22652848393845
H           -4.40797175560594       -2.62732542427290       -0.16442270980240
H           -3.27327578434655       -3.05852059749462        1.12067990520577
H           -2.86402844510622       -3.35771568773576       -0.56508598014118
H           -5.11765347314250       -1.34362059780763        1.77411219151995
H           -7.54405833602121       -1.03653523463919        1.97650076803109
H           -8.69778676791713        0.61004102925938        0.56385232089004
H           -7.42312288459555        1.93871947471401       -1.06470211240040
H           -5.00098755901464        1.60879426273298       -1.29215754569466
H           -3.48104938499400        2.66646779668369        0.80710162901033
H           -2.90295818088992        2.82855090846545       -0.85951535393758
H           -1.76096002355737        2.90629485788365        0.47965824310951
H           -0.05086665976498       -1.77483567049342        2.19119256797831
H            0.90470291354302       -1.14001963775636        4.36547135927636
H            2.07371639865645       -2.88512814235157        5.68495842914451
H            2.22867624846731       -5.15423757729385        4.77432989605520
H           -0.83547599252240       -7.52452928092926       -1.06469674609041
H           -1.68550669037669       -7.08249319466005       -3.34504905046406
H           -1.91370546251552       -4.76650971318801       -4.15186473241124
H           -1.30522588631471       -2.88341375697050       -2.66834710713095
H            2.07387088524516       -3.73659233713584       -0.85849572135002
H            2.68230294429678       -3.61728491496673        0.79417801438468
H            3.75562188559822       -3.31096065952755       -0.56325402637528
H            4.88227544641296       -1.85666561785551       -1.86900129446476
H            7.33482430439344       -1.96449032642851       -1.82124273001753
H            8.58052592055262       -0.84373319863551       -0.02417822541143
H            7.37065595367733        0.37252305722988        1.73615271350296
H            4.91531830801906        0.45144843149556        1.70900130162033
H            3.82244525603083        2.09984314074763       -0.52780218381433
H            3.16234432856757        2.19804834821202        1.11235265462187
H            2.15011308513841        2.61232959329507       -0.26935522728206
