65
 energy: -13.353114445436 gnorm: 0.000546051409 xtb: 6.6.1 (8d0f1dd)
C           -3.35544811457100       -2.64909206261128        0.20087475561770
C           -2.72187937118874       -1.31505324162406        0.07271837923270
C           -3.39435255697661       -0.07387886548356        0.11161401083315
C           -4.84616501836369        0.13602376554883        0.24341778474406
C           -5.59789364750108       -0.58409652000680        1.17408727914816
C           -6.95368432935339       -0.38060973867154        1.29397234695910
C           -7.58982192389214        0.54532241620101        0.49135572155324
C           -6.86362142472596        1.27065933036802       -0.43206795308596
C           -5.50766176241966        1.07092403627857       -0.55530678867058
C           -2.41469923472467        0.95531837913631        0.03216293759895
C           -2.59914532210962        2.41703316916714        0.05890136139797
N           -1.23626837781640        0.33928893178201       -0.04844983087024
C           -1.34444853747384       -1.04516388845252       -0.04237407269677
C           -0.21224115051081       -1.91394911217727       -0.07359821375331
C           -0.34884414444557       -3.35503305169736       -0.00848634912512
C            0.08885342740539       -4.25700767314524        1.01106190545420
C            0.65520549128791       -3.89390618424354        2.30952237241956
C            0.53771638972690       -2.59305887248995        2.79469467868935
C            1.08359974225912       -2.26270453640615        4.00306916013214
C            1.73546481896335       -3.24850582537331        4.70563612261416
C            1.80363499399138       -4.50810658940431        4.16430359054651
N            1.28689553552715       -4.85446103390589        2.99799997981783
N           -0.09379958175914       -5.51917637570750        0.62425100784878
C           -0.64132993974405       -5.47472148056192       -0.62337801793375
C           -0.99969857749750       -6.53588616138756       -1.45067323252778
C           -1.50718983116389       -6.25657604264983       -2.69545730588490
C           -1.65374865502830       -4.93804144699570       -3.12479858404554
C           -1.29951102277152       -3.90396386313067       -2.30492024465961
N           -0.81278899143623       -4.17502021783576       -1.05681767054147
C            1.06135720026209       -1.27666794628819       -0.11413385625556
C            2.37689146430651       -1.80617135273574       -0.19543220892150
C            2.76830251621002       -3.23489421539820       -0.25558575014445
C            3.25473640023017       -0.72930397923479       -0.19465044869626
C            2.51389317939004        0.46295485793384       -0.13172632581332
C            2.99202897385313        1.85697054158082       -0.13615523006010
N            1.22618350689620        0.09649950618182       -0.09400803433626
B            0.08371636635886        1.10716483075166       -0.04822922680517
F            0.14252257087554        1.92383498496724       -1.17322972707476
F            0.17973182771547        1.84478247508729        1.12832699347748
H           -4.39559571912866       -2.62230706938226       -0.12427678722236
H           -3.32777898028077       -2.99330132039496        1.23500233995843
H           -2.84392528623133       -3.39078747691560       -0.40912413217919
H           -5.09837217174127       -1.28740099961670        1.81729465267549
H           -7.51941892450540       -0.94277092880091        2.01877535348896
H           -8.65163906688933        0.70298500344877        0.58610778402250
H           -7.36010416659847        1.99313154405585       -1.05894378018864
H           -4.94416685245001        1.62395885609336       -1.28640755205087
H           -3.42286268100087        2.69958612096832        0.71476899035345
H           -2.80091845539381        2.80055695553002       -0.94123226933194
H           -1.69146999343143        2.90040583954434        0.42260621214819
H            0.01707221496050       -1.85026427304027        2.21866769434591
H            1.00693304563541       -1.26007666603150        4.39101999847303
H            2.18194732474398       -3.03615502105301        5.66309134907261
H            2.31004263418012       -5.28980763273078        4.70922888986888
H           -0.86774029096671       -7.54569084833126       -1.10587798411251
H           -1.78942939495438       -7.06430877057244       -3.35042426629780
H           -2.04564144252136       -4.73462279768868       -4.10741566238077
H           -1.39318231326142       -2.87729138554501       -2.60950689071651
H            2.06718307985579       -3.80691041449373       -0.86374770379686
H            2.78927533251299       -3.67494101849591        0.74167386801428
H            3.75987472214898       -3.35028662387421       -0.69376973762245
H            4.32808638825774       -0.79566569729347       -0.24414808967700
H            4.07622108981739        1.90779317201303       -0.03422218669113
H            2.53911860987728        2.41184343258812        0.68627836398547
H            2.70615840757955        2.35202107263887       -1.06468977031802
