53
 energy: -10.407833788477 gnorm: 0.000461708329 xtb: 6.6.1 (8d0f1dd)
C            1.44690427112531       -0.24714552888377        1.08844702448058
C            2.73372647339221       -0.46088448766152        0.38282421290978
C            2.93682768036305       -1.22865845558026       -0.79140108815294
C            1.92710923940138       -1.94886434202779       -1.56908733520575
C            2.21644815184506       -3.19224255206574       -2.14410974400643
C            1.27386763891106       -3.86597639043534       -2.88475257639335
C            0.01954798566153       -3.31900727280732       -3.07398600814408
C           -0.28908462508168       -2.09366006254600       -2.51562164441718
C            0.64858524264547       -1.41615821173925       -1.77183142729289
C            4.34123928623837       -1.16956157741651       -1.08679886304461
C            5.08078699850270       -1.68243301998250       -2.13755923798430
C            6.43726801083286       -1.41380259602660       -2.18022691710389
C            7.45965452646299       -1.81268690244124       -3.10690267037472
C            7.25828669942342       -2.61491284396943       -4.31477962898252
C            8.19150891291276       -3.58099243087903       -4.70894263391014
C            7.98896693372884       -4.33954156492943       -5.83810803896349
C            6.85481032965039       -4.15511068397618       -6.60497683147797
C            5.92116284430412       -3.20572971418181       -6.23713306312659
C            6.11713215781077       -2.44551978710808       -5.10813865926540
C            8.68065595351228       -1.28066643885114       -2.62145793813914
C           10.01309628150904       -1.39815709489709       -3.26204830684420
C            8.42262744289939       -0.59316451324265       -1.42738184563980
C            9.36521964375506        0.14532644813209       -0.56900420605733
N            7.09365276986605       -0.68362990439695       -1.20486716263101
B            6.38262309274584       -0.05068479589186       -0.00622485259911
F            6.54735183757122        1.33094231736111       -0.05450274283672
F            6.90425367621270       -0.58429028521296        1.16905345266115
N            4.89075019118274       -0.38216927771426       -0.09022076151200
C            3.96880528178696        0.06055599446518        0.79197953450592
C            4.26798034672569        0.90209134234061        1.96370273817034
H            0.78334458954772       -1.10295215301066        0.96076184493421
H            0.93881742248826        0.64126941913589        0.71229718196379
H            1.60684783819359       -0.11244242951979        2.15858665196371
H            3.18098639788489       -3.63611033502724       -1.97034966401055
H            1.51274414019195       -4.82464530429279       -3.31532084688971
H           -0.71709220136233       -3.84781658036724       -3.65630571155547
H           -1.26612266748332       -1.66497587267875       -2.66775985187236
H            0.41458448519650       -0.44849536356497       -1.36436836887105
H            4.61301736651218       -2.26940504809973       -2.90293755354249
H            9.06016193553283       -3.74943930002365       -4.09714812806272
H            8.71452489476003       -5.08393231621509       -6.12265562754650
H            6.69853468065434       -4.75065392929071       -7.48944357747680
H            5.03935744277600       -3.05769086014041       -6.83880178913377
H            5.40539015308203       -1.68334638229575       -4.84361686516884
H            9.92096839206892       -1.47860691321445       -4.34559633180345
H           10.54624221357012       -2.27604658949707       -2.89606124355677
H           10.62580478650691       -0.52159227906390       -3.04930295870568
H           10.29332988889447       -0.41000253680610       -0.43241344886491
H            8.92068996735517        0.31343572485146        0.41294347228295
H            9.60167609091413        1.11815035674013       -1.00032238551821
H            5.30659924778284        1.23401101014713        1.92723265739558
H            4.12512253389547        0.34535019376324        2.88996006087253
H            3.62940512514121        1.78532212103324        1.98657970454293
