44
 energy: -9.633926339295 gnorm: 0.000503659944 xtb: 6.6.1 (8d0f1dd)
C            3.30921547735374        0.01834591645993        2.10471880296976
C            3.69429464613838       -1.41249562751338        1.96277609899000
C            2.76302047450301       -2.36758008736429        1.61047233341874
C            1.33793826122707       -2.01643784067491        1.40514221668370
C            0.75537240843658       -2.18155038435241        0.15319420333115
C           -0.57453019945971       -1.88401666974117       -0.04496706459656
C           -1.34460883187295       -1.42670851311072        1.00574422668883
C           -0.78288543116292       -1.27092417504187        2.25727064008322
C            0.54704452524619       -1.56573166698669        2.45877333251298
O            3.07726994866958       -3.69756349649497        1.41841766448857
C            4.38276609785169       -4.10164504471213        1.61733332947816
C            4.72315039838907       -5.42506665586519        1.44301731544703
C            6.03463917441972       -5.91174607830781        1.63305583577832
N            6.26325282395953       -7.21040097907801        1.44139443929651
C            7.52939335763786       -7.59447448225696        1.64048666443892
C            7.87185748880540       -8.95374658817983        1.46114343095266
C            9.14662668182994       -9.39284133726698        1.65212941716723
C           10.14936769618826       -8.49711940707243        2.03260413833933
C            9.85797508435050       -7.17838658452381        2.21480810998051
C            8.55017760750441       -6.68338710329874        2.02723718034922
N            8.31336135472730       -5.37498204044641        2.21928993516386
C            7.06166644491435       -4.99969058632267        2.02240576039013
C            6.71637821992470       -3.60656440846038        2.20873058331908
C            7.68047594743283       -2.67569634768541        2.58881452805467
C            7.35030817240935       -1.35084306989176        2.76772632059460
C            6.05524721501432       -0.92035929795766        2.57085253631371
C            5.04966751742262       -1.81461100452570        2.18417634354824
C            5.39049409750922       -3.17075806054617        2.00609226116176
H            3.98133415658396        0.66107072934633        1.53543026784538
H            3.34260863035631        0.32835787612275        3.14962285122062
H            2.30143011135771        0.20332370088576        1.73333390742221
H            1.36120798638492       -2.55176233733692       -0.65592806426129
H           -1.01533829923130       -2.01269871773940       -1.01987055930257
H           -2.38632385309078       -1.19845129355092        0.85072867632771
H           -1.38746309030899       -0.92417635342859        3.07922058153759
H            0.98710190932900       -1.46363245561392        3.43582759668082
H            3.95659813868072       -6.11789162291071        1.15304882187663
H            7.09414977439047       -9.63700945020885        1.16811480068941
H            9.38579975828035      -10.43388373033150        1.51007053285597
H           11.15544866297429       -8.85301530778405        2.18185445204640
H           10.62474934379798       -6.48269990200727        2.50744438115616
H            8.69023592767646       -3.01458529177030        2.74105914727507
H            8.10978248779015       -0.64618449194957        3.06408410673583
H            5.81291169564768        0.11661026948955        2.72164791556290
