58
 energy: -11.320827732856 gnorm: 0.000929271445 xtb: 6.6.1 (8d0f1dd)
C           -3.34757504580551       -2.63140647056691        0.24542068321638
C           -2.72799498092775       -1.29370954105006        0.09412843516836
C           -3.41973557123799       -0.06173844124869       -0.00146070244870
C           -4.85366333481105        0.12282866523412       -0.03077946206090
C           -5.52045899948731        1.28590080590525       -0.33843443777537
C           -6.92965286072372        1.18263343778646       -0.28490456622177
C           -7.36822092466605       -0.05180230689223        0.06061214957613
S           -6.04049161385188       -1.11515434370818        0.31973782279029
C           -2.43556297646259        0.97742186210477       -0.04679984192442
C           -2.59698971200647        2.44262806195300       -0.07297158042249
N           -1.25477226390076        0.37183840331443       -0.01213737873386
C           -1.34443112667010       -1.01858493675827        0.03649580853885
C           -0.20322078995059       -1.86881024777523        0.04540231269142
C           -0.32699747308025       -3.33622110601235        0.02625450202375
C           -0.92949947229978       -4.00136668133353       -1.06157146471144
C           -1.04321821102059       -5.35943509376338       -1.08490285408966
C           -0.56117850966733       -6.14247151946822       -0.01530164203080
O           -0.66020182443371       -7.49699045178962       -0.01150235842062
C            0.03902851850548       -5.47994867692513        1.07475760855083
C            0.15292982966466       -4.12224633486301        1.09400866010669
C            1.06341940166702       -1.22094205961569        0.06783569320156
C            2.38221016023514       -1.72119172934497        0.00575035613683
C            2.76942572560756       -3.14267327460951       -0.15703620869829
C            3.26897261303981       -0.62196105917200        0.11103671542305
C            4.71347652220588       -0.67898625947544        0.14705317142285
C            5.56461908073399        0.35939256084886        0.44578374118148
C            6.93702871209236        0.02081085973073        0.40339085350550
C            7.16408290827404       -1.27407123872365        0.07552759097273
S            5.67795682327098       -2.10225955789783       -0.18184583228505
C            2.47033746687318        0.56557616579709        0.16677366804292
C            2.87120877059481        1.98331360355470        0.21803354820530
N            1.20573826515640        0.16453769147271        0.13012062129538
B            0.04978434058165        1.15703826804225        0.06702076108824
F            0.18072368325726        1.94391152230752       -1.07327339405711
F            0.04961019043201        1.93398496354193        1.22156264672690
H           -4.21195570336476       -2.58682662528593        0.90624228559103
H           -2.65270836426586       -3.34410196548191        0.68711848848937
H           -3.67587010095079       -3.02142118105986       -0.71796657973062
H           -5.02365656746736        2.19732303801721       -0.62500628551808
H           -7.59071592397655        2.00959853370422       -0.50030608049190
H           -8.39615520627519       -0.34437619259325        0.16173221695245
H           -3.28903770153259        2.77803436750596        0.69950246643979
H           -2.95144783525500        2.78099784545125       -1.04650759628010
H           -1.63511317722759        2.92324858431989        0.11066555231256
H           -1.29103590839540       -3.41200056677796       -1.88632433098726
H           -1.50177738683744       -5.85157469868551       -1.92365570693912
H           -1.09805935248519       -7.80428808448674       -0.83581062504851
H            0.40347097641862       -6.07658035004232        1.89152931776909
H            0.60396262965071       -3.62618509163542        1.93586522222116
H            1.97445346623984       -3.71954564970953       -0.62761125610337
H            3.00245052036429       -3.59702175649577        0.80609811414850
H            3.64516081072172       -3.23695199396261       -0.79770893252911
H            5.22722003271764        1.34551625964935        0.71660992256538
H            7.72632862822202        0.72778467260960        0.61439729966358
H            8.12889631852724       -1.73641295984675       -0.01403961768531
H            3.60334586673512        2.21555634147817       -0.55529206447403
H            3.28306840723181        2.23914832428119        1.19410071571166
H            2.00060825001568        2.61931360844720        0.05268184793926
