57
 energy: -11.159958460151 gnorm: 0.000765814617 xtb: 6.6.1 (8d0f1dd)
C           -3.30923478080625       -2.63810077960289        0.10384955573245
C           -2.70621195203342       -1.28624137103651        0.03557718518815
C           -3.40765613450670       -0.05656790648210       -0.01401739491870
C           -4.83961350458035        0.10802306219614       -0.08318799366156
C           -5.54683510607241        1.26239099355584        0.17246680269589
C           -6.94330745330021        1.13303971989614        0.01369948118682
C           -7.33225544957627       -0.11074566481631       -0.36588035067208
S           -5.97188910209953       -1.14988511169063       -0.53138220572675
C           -2.43280732289048        0.99596437829506       -0.00493241316170
C           -2.61549038890722        2.45794529939492       -0.03533127516657
N           -1.24696481961520        0.40326825302647        0.02970151726333
C           -1.32570081397199       -0.99449065390769        0.03562520313347
C           -0.18866712264115       -1.83339679753654        0.04800082034759
C           -0.31020952564655       -3.30962824268506        0.02458469934483
C           -0.03004679720761       -4.07085496253508        1.16344638780588
C           -0.14536355857102       -5.44126735422380        1.13829018916877
C           -0.54116817166829       -6.08275274262939       -0.01903500716632
C           -0.82205682314629       -5.34883989356461       -1.15483089379552
C           -0.70879133117706       -3.97815854930179       -1.13697616615038
C            1.06985852282040       -1.19175826664038        0.08053563896108
C            2.38471349793654       -1.70334197628260        0.06161508005062
C            2.76233458132115       -3.13223094821608       -0.04695777790575
C            3.27629148143234       -0.60503344153566        0.13144575798700
C            4.71691174212204       -0.67580887179277        0.18023204473722
C            5.59801764611485        0.35208156763861       -0.07521267415635
C            6.95709035156677       -0.00455822196830        0.05831050919896
C            7.14460203861585       -1.30027162230634        0.41753149100973
S            5.63636571110999       -2.10722552162722        0.59427701411597
C            2.48542412479807        0.59149068240005        0.15941070517390
C            2.90424686512001        2.00291367687901        0.22603386898767
N            1.21893660841453        0.19996955347183        0.12138632175618
B            0.05904423864078        1.19083829276134        0.08342972459309
F            0.16945308850875        1.97864126778353       -1.05871442655540
F            0.07638227801548        1.96674826607036        1.23875836300004
H           -4.28702495323261       -2.60592312480688        0.58296926249009
H           -2.68919005121565       -3.31689679288714        0.68811446892422
H           -3.43361224113238       -3.05986236199615       -0.89327188635820
H           -5.08552992750893        2.18245859607926        0.49058387715182
H           -7.63369612472456        1.94731555734426        0.18020812818483
H           -8.34444443359692       -0.42201197750065       -0.54237552170912
H           -3.00277097006500        2.82383889380985        0.91557379875039
H           -3.29211561831579        2.75486264075628       -0.83685583366435
H           -1.65603428138430        2.94708166582819       -0.20905636238395
H            0.27416030989740       -3.56491265547496        2.06340994365956
H            0.07298933898645       -6.01548262322580        2.02361110745368
H           -0.63073749493677       -7.15653676151266       -0.03588208067168
H           -1.13042672356563       -5.85100556638298       -2.05701020375547
H           -0.92248295947887       -3.40099389973267       -2.01997791226306
H            2.03150185693355       -3.69044657785119       -0.63118564274469
H            2.83645629112906       -3.59159982299629        0.93893691779243
H            3.72412585153592       -3.24465619442524       -0.54674841875673
H            5.28598177292533        1.33642006309890       -0.38281669500771
H            7.76896832291868        0.68807355545386       -0.11075816065637
H            8.09593107780136       -1.77291705738182        0.57298830846008
H            3.31299959927742        2.33458653356203       -0.72837943604796
H            3.64743782626999        2.15833125585431        1.00818434510554
H            2.04361091336076        2.63391054139970        0.45176821364648
