29
 energy: -6.479401084017 gnorm: 0.000917407239 xtb: 6.6.1 (8d0f1dd)
C            0.90353903317178       -0.05613613881837        0.06866540038627
C           -0.31105809014056       -0.04352365066721        0.19716582929180
C           -1.71143243472684       -0.01889054599218        0.33426813677661
N           -2.41759352058422       -1.04161755901960        0.80649015708107
C           -3.68681660702687       -0.65378701023048        0.78734075192220
C           -3.77438747380082        0.64670939084388        0.28796862555233
C           -4.97761923039163        1.45452362575441        0.09012011129314
C           -6.24753006350083        0.99173142061755        0.42269359726179
C           -7.35480893711813        1.78534821943056        0.22050136956803
C           -7.21389301032684        3.04985424683999       -0.31466221574019
C           -5.96036376088397        3.52080445767926       -0.64906025233039
C           -4.85186082181332        2.72915404756762       -0.44803551339428
O           -2.50445188171607        1.04748858729664        0.00200345217273
C            2.30401133756368       -0.06213677884921       -0.08234479870289
C            2.99938357042665        1.09204200054575       -0.39312010868644
C            4.36088892431839        1.01317016147170       -0.53349371082068
C            4.97791448168289       -0.20398723116268       -0.36060616826352
N            4.34881239829134       -1.32666797520772       -0.06068818086619
C            3.03879859590089       -1.22942605393095        0.07164525477109
H           -4.50817424293479       -1.27729602870396        1.10429283601630
H           -6.35941794000220        0.00690807426917        0.84088092867605
H           -8.33428581807414        1.41868151997473        0.48105509386345
H           -8.08197573549878        3.66869712543727       -0.47177827005830
H           -5.84823627367896        4.50762434110119       -1.06716965831369
H           -3.86796071557409        3.08347180004323       -0.70497758378150
H            2.47269670806354        2.02266494488510       -0.52032642084340
H            4.93622932928550        1.89083361894343       -0.77772409756518
H            6.04915173129078       -0.27509962151998       -0.47366141940305
H            2.51092044780755       -2.13806898859395        0.31569685414540
