58
 energy: -11.345605919375 gnorm: 0.000430074106 xtb: 6.6.1 (8d0f1dd)
C            1.57239618161565        0.82516116510996       -2.45608764128722
C            2.44233993253822        1.85001914156000       -3.08451788183053
C            3.79521251539962        1.95718378783186       -2.71791903986567
C            4.57134510774067        1.39442896232626       -1.63605394241780
C            5.93198778772651        1.57068697249961       -1.96214530817413
C            7.03289014005291        1.03723625543728       -1.10218692605077
C            6.53049923316108       -0.11032705537846       -0.19376058376388
C            5.16681145249439        0.14940339207897        0.40034967589831
C            4.85637515185640       -0.30238425105502        1.66968534243496
C            3.63741242122320       -0.00938225245402        2.25032094290270
C            2.71750227518522        0.76556826210429        1.57245002262223
C            3.00090377553547        1.22101459569611        0.30715140728429
C            4.20440554353546        0.88513599653810       -0.32272539062152
C            6.02157266771442        2.32952045705367       -3.13228024315004
C            7.22886940992884        2.81834573398023       -3.81934386216927
N            4.74967737685549        2.56355964363821       -3.52766985017076
B            4.40195589256516        3.48389498649480       -4.68914349332864
F            4.87769375014700        4.76286833900506       -4.41029660102991
F            4.94881855078541        2.98165568198028       -5.86642794810687
N            2.88095519385625        3.51677075419498       -4.81077061796512
C            2.26555452261433        4.38624250567103       -5.64038511653350
C            2.93146568824419        5.44124640678625       -6.42359431190045
C            0.90266482187062        4.09973262372493       -5.55914399921786
C            0.70886789018102        2.98895286882842       -4.71077490590035
C            2.00678821002292        2.65427771681957       -4.15250241815920
C           -0.64453154019584        2.46606979633206       -4.53429440827643
C           -0.91499253591623        1.12826998036784       -4.22934272423978
C           -2.20556406778356        0.67280081676788       -4.09902175046518
C           -3.26545303824867        1.53276522379627       -4.30085828367964
C           -3.02723619269515        2.84142918884382       -4.67069344728005
C           -1.73704706670746        3.31856189254173       -4.81319176981785
C           -1.50324538943644        4.72380896687405       -5.30914696421904
C           -0.23434723089016        4.84421800680409       -6.18074210790108
H            2.03994682644228        0.37521992187457       -1.58383485177820
H            1.40407155012020       -0.00165873216961       -3.14483032762719
H            0.61524232814171        1.24694047434575       -2.14843864618791
H            7.43526393555577        1.85332607187639       -0.49163295726502
H            7.85871917623267        0.69819375877920       -1.73914775277749
H            7.24733095316000       -0.29437173141969        0.61559167582141
H            6.48685489690605       -1.04303056922167       -0.76757768649888
H            5.58438720499010       -0.88023310682993        2.21294124556817
H            3.41425752530259       -0.36616098268848        3.24241311004933
H            1.78253671031387        1.02489980295403        2.04175059390640
H            2.31827389487500        1.88986078427859       -0.18763663735676
H            7.82546385051696        1.98820226898485       -4.19804634988060
H            7.84795210841635        3.41216307228187       -3.14657580078839
H            6.94721161006322        3.44723464111443       -4.66519190760674
H            4.01106656859305        5.28537406973950       -6.41866306931343
H            2.73186309556618        6.42497279011873       -5.99836688416731
H            2.59142343474254        5.43499623772272       -7.45936605555872
H           -0.10433138658066        0.42753618527354       -4.18993176520069
H           -2.39060674009914       -0.36128943219913       -3.85760001647606
H           -4.27715261350559        1.17582451579434       -4.19871069908725
H           -3.85459931453180        3.50225686155560       -4.86530944997062
H           -1.42363254571631        5.39161514765731       -4.44380170593805
H           -2.38348126634712        5.06334489810659       -5.86848333812754
H            0.04765541363487        5.89481600757080       -6.31992833851168
H           -0.42226564776909        4.44174048168381       -7.18245823885226
