27
 energy: -5.120506565311 gnorm: 0.000610905436 xtb: 6.6.1 (8d0f1dd)
C            0.57098847505760        0.59184369389786        0.08022896349458
C            2.01309077644896        0.24332232129624        0.09059891027086
C            2.46585838684715       -1.07718643722468        0.09676019322777
C            1.77517356495535       -2.31381923354474        0.09492832402242
C            2.71748712821775       -3.33005609427917        0.10281857753006
C            4.00425646799787       -2.76015006910453        0.10963514700770
C            5.31836241423298       -3.42619790944410        0.11890410416483
N            3.82335304529516       -1.42908114032371        0.10594985784438
B            4.97167746694639       -0.42145608391519        0.11190405942416
F            5.72137761467212       -0.59882816026345        1.26977479597883
F            5.73905862584023       -0.60522473752186       -1.03331584303956
N            4.37425066900785        0.98526355759091        0.10341601628491
C            5.08873740792501        2.11813912999510        0.10424617446144
C            4.16733835388922        3.17403269234019        0.09493897543886
C            2.88490929261893        2.64822673583514        0.08852639390305
C            2.99287714259496        1.23593051919918        0.09384679257156
H           -0.05692124853277       -0.29850043270795        0.08065425713990
H            0.32106827414553        1.17479718562118       -0.80659811158998
H            0.31037787442340        1.18310818150672        0.95843166636140
H            0.70656171985268       -2.44164122050183        0.08844230465513
H            2.50833505426731       -4.38668643950924        0.10328576280840
H            5.21628690222826       -4.51144377542310        0.11902303527038
H            5.89622535820016       -3.13091318239329       -0.75741046561694
H            5.88454600556692       -3.12957777870436        1.00235813653792
H            6.16499127146753        2.16731717653942        0.11074031230624
H            4.41744846884307        4.22263089755364        0.09274632279579
H            1.96540348699037        3.20809060348563        0.08057533674590
