44
 energy: -9.052536910899 gnorm: 0.000701319152 xtb: 6.6.1 (8d0f1dd)
C            0.23694411261214        1.14773618106685        0.73860491823862
C            1.59303419804175        0.61487148353198        0.45457165010594
C            1.83612789695065       -0.75529478108290        0.38854158160220
C            0.94304590408701       -1.84623804316419        0.59718323510711
C            1.65985744919473       -3.00629744518882        0.49516997104814
C            3.01918909433316       -2.69329805136539        0.20714990536271
C            4.09736526792136       -3.65139647215564        0.04178240301127
C            3.95609213542807       -4.97548473557015        0.47074559120779
C            4.97950364291955       -5.88133224212467        0.31558043349300
C            6.16756684793264       -5.49431565475782       -0.27322082703187
C            6.32705821733210       -4.19381441536003       -0.70843202329154
C            5.30588022229141       -3.28765926708942       -0.55432123777874
N            3.07833173312432       -1.33154684628765        0.15165985368503
B            4.30507711605260       -0.44959782037464       -0.13490648659345
F            5.33023373597641       -0.83082530890858        0.72453247507175
F            4.64889079553378       -0.61042822829693       -1.47444949693896
N            3.99889252736714        1.03855484938179        0.10148839384989
C            2.69564828126451        1.45879700255789        0.34152672320447
C            2.77305302938856        2.87399790893941        0.48958260009179
C            4.08182693724871        3.24426405178597        0.34916831404683
C            4.87226924711604        2.08660006923493        0.09707166567517
C            6.31106678169215        2.06304058908654       -0.09440709163036
C            6.95298320137274        0.94973529190149       -0.63920167390374
C            8.31545186790813        0.92594285958685       -0.81545296348975
C            9.07730363731634        2.01971311998973       -0.45563754542262
C            8.46607258765400        3.13671751894532        0.07937642015235
C            7.10223273934656        3.16198558197418        0.25716936368892
H           -0.53604143080556        0.49416514217434        0.33393582079482
H            0.09948473450165        2.13099348047304        0.28836106251103
H            0.07428837195613        1.24081446898646        1.81272748408353
H           -0.10802412956131       -1.76716665413501        0.81598812295630
H            1.25642358953291       -3.99913821444230        0.59934205633737
H            3.03897909724156       -5.28046056075809        0.94270154228024
H            4.85599479209387       -6.89555246423202        0.65825000503210
H            6.96863701780622       -6.20530846763865       -0.39145113011320
H            7.25207504727089       -3.88894015144520       -1.16974158604237
H            5.42110475260770       -2.27893411190819       -0.90238640293685
H            1.94597638867616        3.53208172179639        0.69383958835564
H            4.45230813701004        4.25378877807312        0.40247664366444
H            6.35627293124077        0.10626522415219       -0.92955459179018
H            8.78849162805219        0.05335876873493       -1.23519194462080
H           10.14607750399636        2.00181908209859       -0.59219319980809
H            9.06064897530806        3.99010398813667        0.36156212264003
H            6.63565338566372        4.03017277367944        0.68766825409570
