24
 energy: -4.653327400718 gnorm: 0.000455640777 xtb: 6.6.1 (8d0f1dd)
C            0.76922704891149        0.16622266287227        0.04705468985722
C            2.24901389557327        0.06050541264194        0.04894253684382
C            2.91367867540550       -1.16713103787817        0.05154202298674
C            2.43065904796262       -2.49908409520425        0.05236844486560
C            3.52434162642863       -3.34995244370847        0.05458327979232
C            4.69521916220610       -2.58129966435944        0.05525747292857
N            4.31136253627344       -1.29845194974087        0.05342868344539
B            5.27337094359861       -0.11025500485339        0.05396969394739
F            6.04581813918537       -0.15293212722440        1.20877720143144
F            6.05247394539212       -0.15714964624091       -1.09618734329292
N            4.45410159471671        1.17996830992339        0.04929789275979
C            4.97416155539450        2.41386554080425        0.04667362807101
C            3.89293566600471        3.30484720060939        0.04310914380409
C            2.71368188503689        2.57704407756720        0.04369234088458
C            3.05106958344405        1.20158359799651        0.04762194955177
H            0.29706728308649       -0.81560102617468        0.04903214185007
H            0.42129430106798        0.70087176825887       -0.83722899466783
H            0.41938571592200        0.70530700424757        0.92788961058752
H            1.39672887066882       -2.79822052847918        0.05108062406025
H            3.48344838657500       -4.42728841391287        0.05534094694031
H            5.71915157949514       -2.91753054955881        0.05700213056841
H            6.02823992978815        2.63811951553073        0.04712025623567
H            3.96846043108971        4.38027151025500        0.03998179964048
H            1.71520819677271        2.97963988662832        0.04118984690831
