65
 energy: -12.681066422745 gnorm: 0.001311589060 xtb: 6.6.1 (8d0f1dd)
C           -1.94896173560312        1.99387599351060        0.70311784787063
C            0.64056778353431       -1.01557483570550        2.48271919710718
C            2.10863195174592       -1.57508873455348        2.08170614289568
C            3.59393913948428       -1.47582481454409        1.57577328821215
C            4.55040352170007       -2.44534723622133        2.31103956771079
C            3.97621009832397       -3.77750562781975        2.75882294262096
C            4.80969038910458       -4.86663149498117        2.92469226588101
C            4.33837538291667       -6.05631385267947        3.45125773805121
C            3.01713763700852       -6.17221157205089        3.84156055550227
C            2.16216461573321       -5.10955780422678        3.69138728010091
C            2.61919202079946       -3.90987535193873        3.13347541329143
C            1.73515331412956       -2.78181299144752        2.91037542420708
N            0.92827210692063       -1.96354983445529        3.69362552294299
C            1.85999033518530       -0.74403858621885        3.42625933651973
C            0.89425057594305        0.38864365818824        3.01620367860943
C            1.14200491328095        1.52736568193950        2.22268353586777
C            0.87192362097490        2.83962635986813        2.71191718409920
C            1.04646915591799        3.93933705496994        1.90655172675503
C            1.48971729180610        3.79146231969108        0.59999440741293
I            1.68076244160906        5.45357577098321       -0.64945417725401
C            1.78353205290725        2.53244783993468        0.10303374303494
C            1.61719370981243        1.41762359447281        0.88472087721021
C            2.69863779210090        1.56915232682609       -3.13299135174624
C            1.55624373864094        2.24438171800903       -3.50741137064419
C            1.48251099272421        3.56230290913886       -4.18083635979776
C            0.48098135289605        1.50020313986449       -3.02335343622392
C            1.00094390678511        0.35111395553137       -2.38272602055309
N            2.40981536940344        0.42761014219331       -2.44298105095636
B            3.46388373690658       -0.30060416629992       -1.75959974613714
F            4.04756439504870        0.30657466587282       -0.69564241983583
F            3.48239714149992       -1.65430356569820       -1.84865187820659
C            0.16334169748048       -0.59794501118180       -1.72638656860496
C            0.69295336756560       -1.66105264319872       -0.98528316323519
C           -0.12867302226528       -2.51729959495812       -0.29954400068198
C           -1.49751584758650       -2.34187625092681       -0.34611572168203
C           -2.04267589660905       -1.32237165866958       -1.10536168400130
C           -1.24002691563335       -0.44500317790713       -1.80768434645904
C           -1.86559260757427        0.60725532447533       -2.69511309720108
C           -0.97455290413274        1.83410569921650       -3.00871489808232
H           -1.70586130432567        1.08162330810324        0.20595868008220
H           -1.09107520673749        2.62792039403102        0.70985165493902
H           -2.24172586790727        1.78295428903842        1.70771916352909
H            3.93193711647468       -0.43918107555020        1.67765478244321
H            3.60806948473380       -1.68596774603871        0.50200823234280
H            4.94641116460612       -1.94453995318241        3.20252286019544
H            5.42754737996585       -2.64028017335878        1.68163654501991
H            5.84816227513871       -4.77514406471089        2.65544812075271
H            5.00793990584792       -6.89229953850561        3.57045208834019
H            2.65868646785884       -7.09720151638453        4.26281479352319
H            1.13020403635862       -5.18822491560297        3.98636855806247
H            0.51555066327418        2.95242001794585        3.72070155243992
H            0.83146828586855        4.92984109748215        2.27613580950240
H            2.12548301105935        2.43197313574662       -0.91401383573931
H            1.82498051086390        0.44502793821491        0.47919188422303
H            2.44122266129846        3.81486279902628       -4.63351069280713
H            1.23033699571215        4.34539073324832       -3.46610723598609
H            0.72751597815544        3.55870149605776       -4.96660388783470
H            1.75645504032179       -1.80725903203806       -0.97723635310248
H            0.29459777207990       -3.31963107809162        0.28252355012577
H           -2.14290974886052       -3.00921756092881        0.20058635860030
H           -3.11186073025141       -1.21141023243169       -1.16208819676178
H           -2.80778490106845        0.93648320571143       -2.24129710541488
H           -2.15246888033823        0.12067742787970       -3.63428950821810
H           -1.14003526004190        2.61562487360888       -2.25832392829204
H           -1.25341347328356        2.27923682153851       -3.97070027648570
