82
 energy: -17.515807562301 gnorm: 0.000981785259 xtb: 6.6.1 (8d0f1dd)
C            7.21857985377707       -1.75390797907473        0.56799240415200
C            6.27568522584057       -1.42257804370386       -0.52978712915040
C            4.91505530376362       -1.24149655481567       -0.29442370955719
C            4.09309649872959       -1.42207446349180        0.89017992674806
C            4.34413303552738       -1.92405442792228        2.16646164645521
C            3.31138022738555       -1.98194004768319        3.07834412862498
C            2.02755114262568       -1.55939249888050        2.74283094334410
C            1.74747257383316       -1.08093659373863        1.48281535027657
C            2.77902024697616       -1.01632113659966        0.54656615974550
C            2.77781048687392       -0.61190378470283       -0.83448487955441
C            1.64717668559247       -0.12253179519724       -1.63924410339943
N            4.02205567916769       -0.77558182248916       -1.26511040703388
B            4.42055484303657       -0.45184829973910       -2.70207727554854
F            4.21687159911737        0.90444670150761       -2.94295803843731
F            3.67216512614204       -1.23937444394284       -3.57404297764660
N            5.90092909528987       -0.77882203155044       -2.87408750462790
C            6.51559269929064       -0.63029890823329       -4.04464476961779
C            5.89051495576403       -0.15846008382839       -5.29016806341603
C            7.87615909460733       -1.03312428351526       -3.83297366733750
C            8.95137033343856       -1.08796374922580       -4.69712817027661
C           10.19622629315482       -1.55221598745079       -4.24113501801303
C           11.32075245351657       -1.58609575706972       -5.12807998553138
C           11.20086893760230       -1.14350003237631       -6.53887440480786
C           10.48263506566122       -1.89848819802708       -7.46902116057141
C           10.38103683351254       -1.48826965951803       -8.77859796884995
C           10.98963675618478       -0.31791207630834       -9.18747448319249
C           11.69975479985173        0.44470996557085       -8.28128270059693
C           11.80434084908039        0.04022730065179       -6.97017976894450
C           12.53635630026366       -2.04345103962082       -4.61934631658830
C           12.67067673496355       -2.46756328209558       -3.26641119351106
C           11.59278911341966       -2.44282177007502       -2.37990759544959
C           11.75143114701097       -2.86992765634661       -0.96850714007977
C           11.12415353591691       -4.02388732051204       -0.49334403346598
C           11.26707811775587       -4.41169288555864        0.81918990407568
C           12.03701631863304       -3.65951116287769        1.68433371950572
C           12.66280818970550       -2.51382828356265        1.23395174326422
C           12.52105919464098       -2.11945846133115       -0.07681145536547
C           10.33287286409754       -1.97661971774511       -2.87327322325929
C            9.22226894151085       -1.90835477563109       -2.01039506752202
C            8.01309265391681       -1.43004092372225       -2.46623673989169
C            6.71785727784120       -1.24299394810292       -1.84250098016763
C           14.04692337683928       -2.92232295335128       -3.06898898626867
C           14.77221281637482       -3.46037913607813       -2.02518174418483
C           16.11543776793465       -3.80541793822026       -2.23228771722304
C           16.73797940758290       -3.63320223871305       -3.44841616582302
C           16.02924823526043       -3.09484780800063       -4.54767707682112
C           16.49860916507010       -2.87016542078880       -5.86296060214740
C           15.66025251516919       -2.35394859434266       -6.82564225270716
C           14.32308451783689       -2.02959002725670       -6.55539971707813
C           13.82777435224616       -2.22537539856244       -5.28230914502890
C           14.69622765636169       -2.75377967253991       -4.30771038937230
H            7.33831638666056       -2.83252357174902        0.67485154953552
H            6.87332948157822       -1.34592763164373        1.51700665252957
H            8.19762147214656       -1.31048318654419        0.39038982093906
H            5.32000769786169       -2.28924366860000        2.42787192773193
H            3.49873334670170       -2.36782934469962        4.06694394688522
H            1.24036867419909       -1.61716007314731        3.47645374473508
H            0.75558800731712       -0.76622576779272        1.21041497911315
H            1.21905997491558        0.77975393759177       -1.20203301633358
H            0.86466580208080       -0.87802441272181       -1.71245222052652
H            1.98343067513088        0.11601705388268       -2.64931528677320
H            5.92418260372612       -0.93061232609793       -6.05907898843147
H            6.39645951734616        0.72991587440266       -5.66881251083332
H            4.84496649518922        0.09592939207635       -5.11047870594999
H            8.83245037199822       -0.77207347202345       -5.71611255120134
H           10.01464651146570       -2.81257724095236       -7.14637951467551
H            9.82712855522989       -2.08230733833023       -9.48698374004436
H           10.90882912836313        0.00095140726763      -10.21374386865273
H           12.17258759909630        1.35897038076993       -8.60073510053568
H           12.35460829594533        0.63098822103408       -6.25824042398685
H           10.52886657833117       -4.60926426730467       -1.17284425707133
H           10.77784455867115       -5.30480299280160        1.17198607676439
H           12.14911425738786       -3.96638646817351        2.71131871029032
H           13.26208167132372       -1.92686932374014        1.91056345061828
H           13.00309726746386       -1.22474574948379       -0.43156736918655
H            9.32284048274494       -2.24927648926941       -0.99943330028860
H           14.30353759139162       -3.61333474973740       -1.07067727105531
H           16.67523834135526       -4.22113691788354       -1.41089250493703
H           17.76904175275417       -3.91102401665549       -3.57925469795769
H           17.51932332597303       -3.11376812324163       -6.10001186061965
H           16.04047761429290       -2.19512187233952       -7.82118000719574
H           13.68346906574967       -1.63701815567959       -7.32415586101330
