50
 energy: -9.714257419281 gnorm: 0.000736870871 xtb: 6.6.1 (8d0f1dd)
C            0.40207485454778       -0.99825379314823       -1.44931944002021
C            1.66659903190005       -0.41464244205946       -0.93714183523392
C            1.83060862108739        0.96523103840267       -0.81760361656882
C            0.84138487082877        2.03324118679911       -0.92243900724716
C           -0.52059341451223        2.04914324417649       -1.20976766496185
C           -1.19349612056268        3.25414637703089       -1.21789630487596
C           -0.53409699294628        4.44478659822401       -0.93831459568739
C            0.80824925985196        4.44821040788029       -0.63044023477095
C            1.49816341686854        3.23997998915052       -0.60896665995836
C            2.88952444353454        2.95308513418078       -0.32096190246177
C            3.82274188735332        3.92652525731040        0.17962315700243
N            3.44892946436392        4.98159533189303        1.00758752218358
C            4.53686014036978        5.72382976149570        1.32901378371354
C            4.54136127332330        6.91474515577324        2.20372003479483
C            5.63679337202079        5.17292521016256        0.67722163294298
C            5.21410519200504        4.06562665992420       -0.04304799305722
C            6.07909228162165        3.23617680285053       -0.91098813416252
N            3.01360800986710        1.59877350574772       -0.46781601738445
B            4.30119229463173        0.78371828885491       -0.29643037446835
F            5.06534671853930        0.88694377399278       -1.45468457722014
F            4.98486335455869        1.21912618904877        0.83281682671929
N            3.95835049094741       -0.69521928322913       -0.12718530138529
C            4.83697437344473       -1.63617605404336        0.23436008117586
C            6.24199646124639       -1.41235970824468        0.61804533874234
C            4.16286783175817       -2.86746269397889        0.11264644803135
C            2.87234750058615       -2.63765357332209       -0.33160620583812
C            1.85888391197059       -3.69640235850281       -0.55782442719553
C            2.72990657989437       -1.22383231376867       -0.50906533564067
H           -0.35402933211813       -1.04838613245651       -0.66561043706934
H            0.55652525088713       -2.00174755366944       -1.84036663570411
H            0.01125334274801       -0.40778927193342       -2.27757906170796
H           -1.04964169638337        1.13559410919735       -1.40683398273782
H           -2.24688506158926        3.27237585522937       -1.44427525482119
H           -1.07923389387475        5.37406777809271       -0.95849329322493
H            1.32845253588621        5.36498859359435       -0.42152759478939
H            2.51384553656296        5.09110104192635        1.40215808302957
H            3.56513984416798        7.05926565561546        2.66663642445028
H            4.78112808611001        7.81309883268396        1.63428369237836
H            5.27927361975289        6.80923787962803        2.99941294830640
H            6.64487704026051        5.54846123762414        0.72106248059558
H            6.98936691357137        3.76718697266144       -1.18994661919221
H            5.55434009869574        2.95705406088033       -1.82489946672023
H            6.36284345076180        2.31652548479729       -0.39922632648650
H            6.44225824239505       -0.34512171143089        0.71252113666842
H            6.91855880467001       -1.81719454945746       -0.13482820556277
H            6.46610211347708       -1.88589128964401        1.57407240766412
H            4.58791223833070       -3.83240848739881        0.32967864061305
H            2.17145344948879       -4.63527487033199       -0.09978368489225
H            1.71634561479506       -3.88169466519253       -1.62264254318848
H            0.89961469230553       -3.42293666300328       -0.11806790477258
