38
 energy: -7.892791495064 gnorm: 0.000668834281 xtb: 6.6.1 (8d0f1dd)
C            0.69555315903809        0.73250649158262        1.00716269714552
C            2.00588753591732        0.16822294373922        0.59871195966671
C            2.20209886364704       -1.19905239701855        0.42848817002363
C            1.25722966040863       -2.30330297833511        0.54347908015966
C           -0.08503985466500       -2.36067898886743        0.90422977536445
C           -0.72037193297838       -3.58403469484444        0.93677504236415
C           -0.03681979185151       -4.75116125343645        0.62268982311680
C            1.29178917992606       -4.71525579823156        0.26119535069843
C            1.94647852204830       -3.48731194144509        0.20510665984285
C            3.31643679090019       -3.13655749730343       -0.12191567149369
C            4.35807516119902       -4.00417278313772       -0.56659268490560
C            4.26453037558466       -5.31096563151576       -1.07707237067384
C            5.54452531808193       -5.74031758834982       -1.37691694533225
C            6.42659320055458       -4.71712095363123       -1.05369445720393
N            5.70649481345333       -3.68157438681996       -0.56980102144288
N            3.39909004762881       -1.78559143585792        0.05017603129579
B            4.66857618657505       -0.95019281015146       -0.19084231608159
F            5.63158337349694       -1.25289594410022        0.76764027291799
F            5.13164788536591       -1.18343195547969       -1.48126379226844
N            4.34469263782002        0.53481134946420       -0.05665360752774
C            5.22237190382627        1.51978860098780       -0.24144185638253
C            4.54211557559083        2.71883510441804        0.03731736720811
C            3.24473467356499        2.41519478167679        0.39312694064208
C            3.09798608145987        1.00384159725649        0.34027996475006
H           -0.07494668223664        0.49614653417513        0.27298628577298
H            0.73852336312727        1.81752571735051        1.09518006785535
H            0.38939980543871        0.33976863416567        1.97702127569901
H           -0.62078152572039       -1.46599673785585        1.16050134420821
H           -1.75968875966807       -3.63600499193932        1.21626816106053
H           -0.55120027918809       -5.69692568986881        0.66722834427686
H            1.82391823369105       -5.62366115649794        0.05076575507086
H            3.35936746168135       -5.86151132633722       -1.26443054480108
H            5.81147360197790       -6.69747168446170       -1.79595093060010
H            7.49926783777704       -4.72779663648201       -1.17070761673381
H            6.02952956673083       -2.77997789848004       -0.22364993871512
H            6.25012891116966        1.38257809034909       -0.53495650577929
H            4.96747614682003        3.70819822350763       -0.01618294701419
H            2.48097295180569        3.12410709177425        0.66360283781605
