50
 energy: -11.089393281960 gnorm: 0.000819183892 xtb: 6.6.1 (8d0f1dd)
C            0.91618544318455        0.02539160677288       -0.11997583278740
C           -0.30468284695068        0.01560957123196       -0.03058477337946
C           -1.70372316302982       -0.00851052410727        0.05899145270420
N           -2.36666315601535        1.12841946434028        0.07943387883954
C           -3.69274830104495        1.02710453729642        0.16565460010011
N           -4.45103967196753       -0.02582765812960        0.23348913877408
C           -3.79037616418647       -1.20510261666460        0.21221784302052
C           -4.50054787241352       -2.41914131967812        0.27097902067049
C           -3.84559398174959       -3.61713144924814        0.24288651458125
C           -2.45259528657780       -3.65676662253072        0.15604069890074
C           -1.73550242491482       -2.49814478776579        0.09854070177625
C           -2.38827689497670       -1.24787367465326        0.12490358179687
C            2.31575700833660        0.02740333993239       -0.23585364298791
C            2.97253325511548        1.06807729500758       -0.88848492964540
C            4.34073345590501        1.06762706535980       -1.01498151396108
C            5.10568792065492        0.02662038412327       -0.49247538599502
N            6.53071185387502        0.02537029726629       -0.62792186519527
C            7.25561169733195        1.26452127347350       -0.64017959584648
C            6.88549799265264        2.31543980441004        0.19518316241397
C            7.58167808723102        3.50279626000282        0.18008708364412
C            8.66018364033597        3.66247491424416       -0.66779303808666
C            9.04136466067580        2.62874953960826       -1.50050919643797
C            8.34686610957765        1.44041554623826       -1.48718867715693
C            7.24348217280127       -1.21309005249890       -0.76491162279996
C            6.71213946150267       -2.26412857142137       -1.50797464028301
C            7.39953945089207       -3.44935747478432       -1.63975920036114
C            8.63038472583666       -3.60684320236835       -1.03351175460776
C            9.17212363103532       -2.57294715812563       -0.29537435648274
C            8.48662987479761       -1.38678250597816       -0.16205880651898
C            4.44811241749678       -1.01330887887423        0.16174812659332
C            3.07954633239464       -1.01399851932311        0.28604310308730
H           -4.21837215043415        1.97135992420230        0.17999789755089
H           -5.57363040069719       -2.37919166669377        0.33723784582164
H           -4.40459121929055       -4.53738213657592        0.28689785507353
H           -1.94537890878284       -4.60731387302306        0.13321786742731
H           -0.66209507111089       -2.52519020262649        0.03025014374494
H            2.38896173022541        1.87526574720794       -1.29725823763852
H            4.83806341844804        1.86871174515604       -1.53300538222060
H            6.05090593553304        2.18117867342657        0.86088801423939
H            7.28527980061892        4.30824936354705        0.83191486308911
H            9.20391635613148        4.59287161129129       -0.67956591053019
H            9.88219167987758        2.75347360829035       -2.16307675562807
H            8.63280243543198        0.63432374985984       -2.13991528197791
H            5.75856886214587       -2.13100471506098       -1.98819239734972
H            6.97766247889063       -4.25486974055068       -2.21816059497098
H            9.16737832798973       -4.53551452981936       -1.13629025385654
H           10.13237354062215       -2.69579872017680        0.17817874370298
H            8.89954867084284       -0.58054268206473        0.41852495378281
H            5.03162444298227       -1.81395037732319        0.58113270904842
H            2.58036064275665       -1.82240166221434        0.79241384637180
