81
 energy: -14.888874797400 gnorm: 0.000829171256 xtb: 6.6.1 (8d0f1dd)
C            1.15805585109547        1.20141869428939        0.19165142124661
C            2.07190334733867       -2.06434155120562       -1.11018483656557
C            1.93959909978752       -2.53197948170711        0.19237234201808
C            3.46986229164873       -2.60221529403613       -0.50138532652708
C            5.23234189018656        0.36296323720521       -0.02042175666513
C            4.77540115391970        1.55556459132990        0.26608930696870
C            5.56918163284394        2.75216107581212        0.33245723231834
C            4.97576416119253        3.98354036198739        0.66129184073827
C            5.71692060971272        5.12872819041660        0.71795302693326
C            7.10361378249718        5.11702268378078        0.44623157576076
N            7.85019641233086        6.27259994245807        0.49297700401728
C            7.25601164550423        7.56391622968983        0.84471458139983
C            9.28211749911960        6.28313002841700        0.18696166133111
C            7.69423288964074        3.87557511530695        0.11964137162732
C            6.94912452639562        2.73269218685529        0.06648314079671
N            5.00847503146203       -2.92412610498675       -0.49788251612637
C            6.35394475903504       -2.61653960525303       -0.47624121422085
C            7.27567909785539       -3.57596189873373       -0.54479008449601
C            8.69626701644002       -3.20407843721068       -0.64967348510862
C            9.53432538891024       -3.79715328435041       -1.59802530196564
C           10.85518940615690       -3.41033637645865       -1.71272420187582
C           11.35793496756961       -2.41932925784649       -0.89515561328534
I           13.35042875890833       -1.84307949884201       -1.06685827773871
C           10.54304274974226       -1.80432350679983        0.03264361368874
C            9.22118441042132       -2.18596218227450        0.15148438237573
C            6.79025310286299       -4.95206246362642       -0.59660749266101
C            7.51724325716440       -6.14020133673390       -0.41868823368354
C            8.94595879943700       -6.32337716434655       -0.06225948763030
C            6.59381194368993       -7.17335990777361       -0.57352917330947
C            5.36115888083093       -6.57566568076551       -0.79748152177200
C            4.10210520018352       -7.23818570150886       -0.99658131163147
C            3.90358441823580       -8.56758149873018       -0.96690278055511
C            2.62450083466104       -9.21356356754935       -1.16310298219991
C            2.53682792308195      -10.60849774519115       -1.11813725590416
C            1.33835193960007      -11.25043997958384       -1.30003668235830
C            0.16247426534326      -10.53154421725065       -1.53698844324556
N           -1.06778026859702      -11.18920520913156       -1.72334961237778
C           -1.18533867262956      -12.64100598043565       -1.59712720877412
C           -2.28742794047875      -10.45124859183717       -2.04828024037507
C            0.25005037232589       -9.13656639471125       -1.58155559477475
C            1.44803401892866       -8.49370405522743       -1.39907419908227
N            5.44821600000763       -5.20243519513897       -0.79177452673892
B            4.08370978686327       -4.30741008995124       -0.72529334377527
F            3.41089272186492       -4.89893063057691        0.36306848444764
F            3.48194583261619       -4.59230162883755       -1.96544467888352
H            0.36055700430848        1.60194907896842       -0.39525522256836
H            0.84124668163335        1.09831972095130        1.20639038175207
H            1.44218649771596        0.24651585439845       -0.19309456471613
H            1.02759809172209       -2.56994039206029        0.78127357489589
H            5.10556275060047       -0.65125903077476       -0.17625149183770
H            3.71838006982592        1.66478634418000        0.46058594864588
H            3.91983663642242        4.01223390750284        0.86892728660659
H            5.23901925590943        6.05835239361840        0.96936977509424
H            6.81498882961620        7.51311060168791        1.83868657434905
H            6.48286851174188        7.82677698425703        0.12485283186774
H            8.00212585703284        8.35597962788647        0.84628682764302
H            9.44879868964355        5.92027995234041       -0.82574334980340
H            9.81856437829711        5.64489343522124        0.88680282124356
H            9.69547045856980        7.28711635784118        0.25848583880544
H            8.74781346149580        3.83401989046818       -0.09059130424211
H            7.41353931068913        1.79543601942970       -0.18649227585741
H            9.12811733842268       -4.54307325306979       -2.25850835538136
H           11.50186404959895       -3.86920038973760       -2.44474014809137
H           10.94866120239108       -1.02267781980536        0.65654784656689
H            8.57849386531548       -1.70149623886151        0.86587880800530
H            9.33580544998337       -5.45236342152951        0.46444669624399
H            9.55421968388145       -6.48995475962704       -0.95131549771259
H            9.07202791033178       -7.18549844724718        0.59326667834934
H            6.79899773161585       -8.22705669690201       -0.49938742917630
H            3.27093920453277       -6.58271754779394       -1.17694577828137
H            4.74874605863906       -9.20540144766753       -0.78210654074357
H            3.43071823916747      -11.18045810430125       -0.93783029994063
H            1.30143776865701      -12.32440818115761       -1.26575851573382
H           -0.80434808880772      -12.96348674451160       -0.63028948062321
H           -0.61823265057554      -13.13062044669399       -2.38617096831173
H           -2.22277436566678      -12.95899500536867       -1.67310975643038
H           -2.12797611453652       -9.83837292477180       -2.93310119634319
H           -2.56786744352222       -9.81003035572316       -1.21512501532473
H           -3.11368165514391      -11.12858360913655       -2.25244528670097
H           -0.63968712358225       -8.55866940801269       -1.75615378918335
H            1.47892155368633       -7.41972476014314       -1.43613912711809
