66
 energy: -12.976877836170 gnorm: 0.000561918014 xtb: 6.6.1 (8d0f1dd)
C            7.52491621292430        0.25512018230526       -2.65916555974355
C            6.59719740459895       -0.29354447418146       -1.64180191375651
C            5.66309965316714        0.42603055766691       -0.94187697663119
C            4.95842775960870       -0.45014304924977       -0.05880973429922
C            3.87732681484913       -0.19681720684196        0.82070490600658
C            3.48024157645187        1.01783133826188        1.32262338118900
C            4.25645740395390        2.22073844995706        1.38278992989863
C            3.61955566026914        3.46815415631251        1.54492546300468
C            4.34038439109694        4.62095913641019        1.62296368502559
C            5.75264362268860        4.61252592770420        1.56209947631033
O            6.39549211900997        5.82014190835615        1.62177104458095
C            7.81293122579994        5.75002685706179        1.51808978915794
C            8.44812668582906        7.13113962853151        1.52303371837843
C            9.96541490674651        7.08938835053534        1.38652818876671
N           10.53408983207362        8.34809910421636        1.36424158065979
N           11.67550042334452        8.48169261862937        0.91541033884116
N           12.76423168116263        8.57914549967300        0.47908085601739
C            6.39218176295215        3.35706510804663        1.44730310661187
C            5.66673257842282        2.20727987405683        1.36822628540892
N            5.49074787808039       -1.68351933717196       -0.28378252690701
C            6.49771754396623       -1.66593667228250       -1.21550598538267
C            7.20944066880458       -2.81578887945710       -1.61497102614764
C            8.30407773434169       -2.74920238619994       -2.61341023630930
C            8.06905312905957       -3.05273867104318       -3.95678389383407
C            9.08679420275834       -2.98468498923648       -4.87985493212550
C           10.35711528463652       -2.61382702190347       -4.48534182808589
C           10.60899325797266       -2.31058810678615       -3.16195960165921
C            9.59602335554506       -2.37658331535296       -2.23361078954040
C            6.82670284897904       -4.02823927652478       -1.01049698765903
C            7.31702411283675       -5.35919407985185       -1.16049226202627
C            8.41134076995294       -5.80949783805332       -2.05296023309374
C            6.57316416367137       -6.16835764133197       -0.31739824803080
C            5.63001489982693       -5.37632857992152        0.36800937010993
C            4.64286223389303       -5.79285109725571        1.37930890291358
N            5.81173941230727       -4.12542713715344       -0.06499469825635
B            5.01662696199173       -2.93144876020971        0.45646297685550
F            5.26553442014482       -2.78044676052435        1.81654567712733
F            3.66316848633866       -3.13167838217889        0.20768273062420
H            8.55810416374977        0.19168417568119       -2.31739491147497
H            7.30473595065294        1.30277147575054       -2.86609804344430
H            7.44289467249781       -0.29459205334010       -3.59695015875354
H            5.46589957833231        1.47610894899487       -1.06766728763671
H            3.29646864848867       -1.06909603224324        1.07728191208942
H            2.49746576531065        1.07290356407140        1.76498572872124
H            2.54468840312506        3.50009796007738        1.59074871274113
H            3.84809138101145        5.57102529486334        1.73031761874964
H            8.06045307626416        5.22249161550453        0.59002539502248
H            8.18690072888469        5.15337629781877        2.35766416658078
H            8.17314910590333        7.65928335107311        2.44232013965634
H            8.02270033128317        7.73136160477435        0.71157023600526
H           10.25222451194820        6.56924194503759        0.46466194803104
H           10.41319443644277        6.52396455897763        2.21229589755449
H            7.46521778459240        3.30479558154723        1.43447579375504
H            6.17327386194029        1.25910488145241        1.32781556622825
H            7.07593314871084       -3.33778211534713       -4.25850915848250
H            8.89196740900674       -3.22017458828240       -5.91324371870443
H           11.15233168509418       -2.56045014173923       -5.21073841164360
H           11.60093437721673       -2.02124246983087       -2.85585744610715
H            9.78606221800620       -2.14244719741699       -1.20032187535253
H            9.31130177824471       -5.21474923873267       -1.89551089537855
H            8.12180639024424       -5.71660103674257       -3.09977791767636
H            8.66456389288530       -6.85342578916910       -1.86661664349380
H            6.69810993302861       -7.23073056790889       -0.19703080208543
H            5.13776805964841       -6.18411894983519        2.26845292085312
H            3.97913542299502       -6.56216140116657        0.98418652744986
H            4.03364020439294       -4.93869470879744        1.67897073281923
