131
 energy: -22.620728632000 gnorm: 0.001266294234 xtb: 6.6.1 (8d0f1dd)
C            4.75561518926948       -1.10660206004142       -1.79743072786554
C            4.30701988319046       -5.38796344134523       -0.12836419811422
C            3.07790584171254       -4.66722458673634       -0.03030355996196
C            4.47367963354107       -3.85089745058408        0.24345310251217
C            3.83269917845509        0.29189085527866        3.70252873341899
C            4.57894836519782        1.35837306535178        3.49935862712490
C            5.54856191444929        1.48497258656162        2.46080821570039
C            6.26568770629424        2.69079817817449        2.29123035094473
C            7.17386403079280        2.83107246844305        1.28965070257477
C            7.43990950630899        1.77309942818688        0.37630709294338
O            8.36136949229440        1.99255158320931       -0.59740388657426
C            8.58597157111009        0.87977859431441       -1.45917750058108
C            9.72466384307704        1.13004270822149       -2.43994719621694
N           10.40002457161711       -0.11976850432790       -2.86116360179730
C            9.49825689557563       -1.08529147387528       -3.53790837984270
C           10.20926535772352       -2.42010825397590       -3.78037221736407
C           11.53362383677237       -2.21450410721136       -4.53609759688098
C           12.43080034987480       -1.19621214610437       -3.81217994328143
C           11.68406912123317        0.11933536820829       -3.59576699501195
C            6.72134498212418        0.55924364742194        0.56242139816013
C            5.81597959191962        0.42443271449737        1.56652055615069
N            5.88009383520058       -3.30024045821839        0.59356469304816
C            7.19021476147239       -2.97213594167623        0.28993362879621
C            7.99175009629255       -2.51010953661287        1.24816358224302
C            9.34648452461018       -2.04169519826410        0.89719011394044
C           10.20449856354401       -2.84469003708196        0.14380577183321
C           11.44190245386509       -2.39085710460449       -0.23576361320488
C           11.87313957306922       -1.10449830783933        0.09563208014610
O           13.13741743175731       -0.70444887570275       -0.35606468783687
C           13.38108391620746        0.69219046923231       -0.24286460435820
C           14.63572738581348        1.11440744438338       -0.98904657556469
N           14.83185682413724        2.58424181413775       -1.04668554804414
C           13.86525675440538        3.32660852632541       -1.92265855486292
C           14.30103069184945        4.78319141937157       -2.09277313419539
C           14.50771805293033        5.45548119903764       -0.72453439869834
C           15.50345919445431        4.65783199387814        0.13511766379824
C           15.04842137027358        3.20376809954193        0.28351429681612
C           11.01354642262830       -0.30065567411982        0.84946902203830
C            9.78064151546093       -0.75926067445949        1.23913926113705
C            7.44343027200290       -2.43582405078002        2.60069674398799
C            8.12084635416941       -2.13004564409675        3.79193211116252
C            9.56180354996586       -1.85644094247131        4.01590664445421
C            7.15765012892140       -2.18112399525442        4.79796617000395
C            5.96564952933040       -2.54794939590457        4.19005663309150
C            4.70244711178797       -2.76190523493855        4.84054354224837
C            4.44012306321979       -2.50871136857124        6.13450223041913
C            3.16102208387466       -2.73347769721752        6.77319298288120
C            2.97444223024014       -2.36256471704555        8.10783639502152
C            1.77432579377106       -2.57166172070094        8.73770752853218
C            0.69849783093154       -3.16470485419685        8.07056755935340
O           -0.48528931766199       -3.34878556071969        8.79011020677619
C           -1.52220780198427       -4.00283561964963        8.06912399401808
C           -2.76268341758648       -4.20740776320682        8.92237360985653
N           -3.86099163309508       -4.92260930325630        8.22680178662410
C           -4.46731509533757       -4.14666926844345        7.11717982713496
C           -5.75435240110978       -4.81740826822818        6.62962801254060
C           -5.49381316342755       -6.28412098229101        6.24479529334911
C           -4.85895482395242       -7.05559778558938        7.41482289257286
C           -3.58422185506588       -6.35958421088534        7.89550912322077
C            0.88409006837383       -3.53319286019037        6.73425978135840
C            2.08395209726555       -3.32260736585374        6.10313863922468
N            6.11356485818968       -2.72343096816403        2.83363987450497
B            4.87043138655938       -3.27609418341684        1.93678710632084
F            3.91593440826058       -2.25368602481336        2.06019133986660
F            4.50525414556454       -4.45221288708316        2.62385391301368
H            4.24379678273274       -0.31415827421583       -1.29627330943422
H            5.55018483591745       -0.70569981188638       -2.38841494740730
H            5.14949846070256       -1.78850284817532       -1.07561850997341
H            2.07955132719075       -5.06996769108534       -0.17885570939817
H            3.68474061127684       -0.64591917406965        3.29593234034386
H            4.44339322978909        2.20771926413082        4.15305905287908
H            6.07680804918360        3.50674804946987        2.96740856632500
H            7.71322450428987        3.75244107252674        1.16237438556845
H            7.65065847701371        0.65559295371748       -1.98340085847208
H            8.83538788296441        0.01565691816464       -0.83758376037213
H           10.47098172387184        1.76231123266629       -1.95169983807985
H            9.38201389424070        1.68280100159409       -3.31883346090003
H            9.16880852497194       -0.64515219457812       -4.48364062930531
H            8.60024700796037       -1.22579509121885       -2.92786090203501
H            9.55305025767734       -3.11322527953368       -4.32444809150027
H           10.41021261027073       -2.90127006432883       -2.81624737981654
H           11.32094372254274       -1.85500225561847       -5.55042700778284
H           12.05917272865553       -3.17065762022409       -4.66776671538587
H           13.36403540062514       -1.02787788443756       -4.36682559625128
H           12.73300366584448       -1.59931990858584       -2.83830483782232
H           11.44971847801988        0.59376788192336       -4.55308375217537
H           12.28793378659691        0.83537721162349       -3.03064707449494
H            6.90406601294122       -0.27105925659866       -0.09273473251126
H            5.30009166241825       -0.51124493177775        1.69736772679450
H            9.87855566614724       -3.83170104139707       -0.13591637980791
H           12.10194425045782       -3.01604488749855       -0.81007255014603
H           13.46157493292035        0.93624761082537        0.82138154982206
H           12.50814037406212        1.21813898680485       -0.64112265147598
H           14.60095739461997        0.73319174550858       -2.01256712477085
H           15.51701021346609        0.65766057306758       -0.53188363439109
H           12.87253233785639        3.27630290216224       -1.46748603776439
H           13.79956318649723        2.81261976293045       -2.88695192153979
H           13.57003120435447        5.33871114950555       -2.69582680386280
H           15.23906922658881        4.81444931538030       -2.65969220659259
H           13.54538854758795        5.51722944002447       -0.20189652690599
H           14.84302557747855        6.49467259792085       -0.84699754483864
H           15.63558599693566        5.12624063880684        1.11982797309075
H           16.49186895745191        4.67820751699453       -0.33910728353118
H           14.11096633102529        3.15589871437501        0.84494402257360
H           15.78058258788143        2.60729095136890        0.83814801954065
H           11.31494276341022        0.69347750669585        1.12382422880267
H            9.11038637288498       -0.11377957447180        1.78016651273645
H            9.77399164060126       -0.78958315934022        3.94425341879779
H           10.18093934037076       -2.38263813774810        3.28927859387622
H            9.86799136063327       -2.18958899228930        5.00804955122139
H            7.32285171910305       -2.00686118976602        5.84697177259441
H            3.92404092722593       -3.14533647351488        4.20847373799676
H            5.22535642652300       -2.10016218618506        6.74434772390183
H            3.78976002783346       -1.90566090158476        8.64193527026076
H            1.63595227235548       -2.28433550364979        9.76488878662198
H           -1.13461121210634       -4.96602779157178        7.72192496253009
H           -1.75686166936169       -3.39444903508645        7.18975818341312
H           -3.13847452731609       -3.24236068460975        9.27139220693415
H           -2.50198528058670       -4.76882424224279        9.82309639037515
H           -3.74175576223537       -4.08067417620259        6.30154670988959
H           -4.65245559399495       -3.12297884736260        7.45955536126178
H           -6.18718848023874       -4.26133302321959        5.78702033860666
H           -6.50448531656591       -4.77843902129150        7.42839256571862
H           -4.81997135081665       -6.31787446772918        5.38001028027781
H           -6.42131561142629       -6.77138457986739        5.91371518690251
H           -4.64982240067876       -8.09597386420722        7.13104470697628
H           -5.57322219727794       -7.11183817909797        8.24485486737148
H           -2.81486268959938       -6.39476199947958        7.11949925972187
H           -3.16519388293448       -6.84987822933452        8.78026752020515
H            0.07761602875175       -3.98865194433161        6.18937896132768
H            2.19721705268147       -3.62389621842169        5.07730129010511
