89
 energy: -16.033470728270 gnorm: 0.000766994234 xtb: 6.6.1 (8d0f1dd)
C            2.39109912717243       -0.71498382912648        1.49125086462054
C            2.55989393801197       -0.58425080871704       -2.16232190811687
C            1.86289312910036        0.05732856150337       -3.17413227751010
C            3.51395373181031        0.21054793485284       -3.22912274230344
C            6.03975216119381        4.05060606343620        0.92580553581652
C            5.49668818920544        2.94545014996968        0.39088225148264
C            5.82560415569490        1.61518930570316        0.73180956644003
C            5.23702164520263        0.53829671548719        0.03444156726016
C            5.60255072765929       -0.75764704830603        0.29105891339373
C            6.55435806889847       -1.05692633215037        1.26409990068876
N            6.97601159382386       -2.44086985658117        1.54815685033523
C            8.46258460477163       -2.63350212916774        1.31420473249023
C            6.28450153357134       -3.48136835115336        0.68244375138459
C            6.68330754301565       -2.83197876779323        2.98455673575976
C            7.12198663516173       -0.00412640315153        1.98068600620140
C            6.77466198073675        1.30063269849238        1.73038513155882
N            4.87156288149140        0.69577956499911       -3.76133722918085
C            6.01110808612882        0.28626073974706       -3.11205108946267
C            6.95498055712869        1.15643991242766       -2.72903808010250
C            8.16232167739243        0.68548446947221       -2.03540164523152
C            8.65369472210746        1.35367324646647       -0.91098540627423
C            9.75263244566022        0.87551574775329       -0.22589732068545
C           10.37689415941259       -0.28146966812713       -0.64417714738832
I           12.02553422125199       -1.00564477348051        0.40754806495005
C            9.90102506613456       -0.96539854334434       -1.74452961036530
C            8.79868553197575       -0.49384670991615       -2.43069481723438
C            6.58003769414396        2.56113429633112       -2.82038248278857
C            7.40100302235368        3.69900039640613       -2.76212290751396
C            8.88032363251788        3.78100727038890       -2.69626629161332
C            6.53374481523042        4.78735415835006       -2.82111250131654
C            5.25003391374205        4.26925149480794       -2.94390645784205
C            4.02231932764196        5.01146585058804       -3.00409010927902
C            3.91381992492240        6.34332984960917       -2.86694972926503
C            2.66636155041088        7.08025117200403       -2.91157322313909
C            2.67473466328298        8.46671829567658       -2.76172553369053
C            1.50377723861030        9.18921688050769       -2.79227519565469
C            0.27953093473009        8.56450873118141       -2.97118182158538
N           -0.95362531061468        9.37401411668177       -2.97951216372590
C           -1.14219351439627       10.11956210952237       -1.67117766069801
C           -0.94178699794360       10.40230659012436       -4.09551514377796
C           -2.22134113573480        8.55885184483089       -3.17916839988134
C            0.26571819764366        7.18612233318783       -3.12451773042188
C            1.43234092200366        6.45546873562137       -3.09598265270216
N            5.25490699691544        2.89395108732072       -2.98040052499426
B            3.93215062274992        1.96819447345152       -3.10302011319550
F            3.11109342135725        2.58612799993649       -4.05391318575252
F            3.41628016216932        2.12196047029401       -1.78825018308443
H            2.22231543077292        0.26549236657684        1.87740098727376
H            2.41897310834483       -0.67580242297004        0.42427530850129
H            3.32254288134463       -1.08595699298093        1.85813110225313
H            0.78911999350094        0.10655762501014       -3.33365095645973
H            6.69088795545571        4.49071953830860        1.59872791360298
H            4.77143332238905        3.07378361567920       -0.40000281000096
H            4.50507939769190        0.75169675217658       -0.72220721491887
H            5.14431566808033       -1.54891018289763       -0.27388248130735
H            8.70524117279650       -2.40555634521761        0.27922191108611
H            8.75797951624484       -3.65949998978014        1.52191343966232
H            9.04167940036541       -1.97371768595487        1.95539884217977
H            6.49394240043738       -3.29902390764432       -0.36934244553464
H            5.20875475879869       -3.45220108911551        0.84086958716170
H            6.63655420706683       -4.48053626890219        0.92956207649366
H            7.22756323116748       -2.19185701755195        3.67443011423431
H            6.97517539963553       -3.86307913159549        3.17115675514259
H            5.61960088562403       -2.72908685019273        3.18704059500289
H            7.85480453305608       -0.22149113547581        2.73757285006723
H            7.23547091169043        2.09946176245039        2.28403635681868
H            8.12764566038238        2.21972458596639       -0.54964931533637
H           10.11954134635675        1.38634959351503        0.65098758338229
H           10.39351360548683       -1.87456193616626       -2.05292834328990
H            8.41680641745263       -1.03329199907975       -3.27983502292046
H            9.34092266791102        2.84446723880655       -3.01086988878650
H            9.21440505247961        4.00512058982849       -1.68305247679586
H            9.25209545966081        4.56845034669841       -3.35242588510186
H            6.81362334677375        5.82562426976677       -2.78134091050945
H            3.13952696666476        4.42134836797410       -3.16010848342634
H            4.80980220701537        6.91351801847707       -2.70149668045652
H            3.61480896543546        8.97121345689802       -2.61891071613498
H            1.53721273598857       10.25762365719248       -2.67266171189495
H           -0.31680731056999       10.80475025950481       -1.49795892474288
H           -1.18109419160160        9.41389709612115       -0.84527700925413
H           -2.06605005530177       10.69246703896675       -1.68325575002948
H           -0.11295531106719       11.09396797632053       -3.97147554425422
H           -1.86646566517262       10.97401330467903       -4.10238120230363
H           -0.83280797277320        9.90514916011511       -5.05597758839714
H           -2.33499653742890        7.83249473153430       -2.37839831514976
H           -2.18978801496418        8.03601654852232       -4.13173995922739
H           -3.09596042141214        9.20465381279579       -3.17631980225675
H           -0.66769804260090        6.67221521790080       -3.26699004842356
H            1.38772672552747        5.38807598404856       -3.21629247613888
