65
 energy: -13.240221286998 gnorm: 0.000935640255 xtb: 6.6.1 (8d0f1dd)
C            8.15856340501799       -1.13820606899978       -0.88363731741136
C            6.93042172843232       -1.23095047135150       -0.05874679112397
C            5.76659962283229       -0.53565592824957       -0.27902026539462
C            4.81236901439193       -0.88528910120925        0.72256661671848
C            3.45917487437194       -0.48144811432713        0.89369915848350
C            2.84438361181550        0.59470861121664        0.33201488152935
C            3.49214637136713        1.71282730538977       -0.33699044092611
C            2.84570334215962        2.37744129210982       -1.38494771238919
C            3.43220930123402        3.45662709054003       -2.00539129960735
C            4.66831421721304        3.91046100569965       -1.58787891914625
C            5.31427938103544        3.28463689913601       -0.53950697198073
C            4.73338578791752        2.20433713767210        0.08340364071345
N            5.44007903779686       -1.79906655948929        1.51039946322320
C            6.73309588228887       -2.04901864535207        1.10969113342103
C            7.59121296222764       -2.95211792633641        1.76745696221353
C            8.98497181017867       -3.17666886589998        1.31429499831085
C            9.32224631914927       -4.30646759613033        0.56522385174970
C           10.61747571450398       -4.51038183084829        0.14787685568921
C           11.60110825003626       -3.59457143993049        0.46664569545754
C           11.28657724542644       -2.47105553838472        1.20594295087983
C            9.99361261235434       -2.26179020050637        1.62714981938502
C            7.05418342726208       -3.62728116556929        2.88051211465608
C            7.62886262637903       -4.59270878895532        3.78310552102081
C            9.00299304148380       -5.14613746963155        3.73265264581877
C            6.66421018030801       -4.92930611245493        4.70283255700563
C            5.47773719280152       -4.19077165735175        4.42184756466321
C            4.22726150205835       -4.17637512188480        5.08401608786549
C            3.92905724360908       -4.89632404152814        6.18928636943513
C            2.65444253473900       -4.88189809123511        6.86607518314117
C            2.47286687987049       -5.65592132424019        8.01757613444493
C            1.26908888858737       -5.66108261226480        8.68402748839986
C            0.21628934494656       -4.89659830105920        8.22051255182783
C            0.37239402374399       -4.12561491296603        7.08525195677706
C            1.57377432431476       -4.11530785173828        6.41414675066654
N            5.76885202578596       -3.43416277706532        3.33141409017122
B            4.78120476417763       -2.43589500996758        2.73132858182529
F            4.50544368808479       -1.44707142862990        3.67181082461996
F            3.62067339778752       -3.10103101490667        2.34610413065748
H            8.94202806238366       -0.59485482939670       -0.35393390833250
H            7.96191085919240       -0.61491789691471       -1.82026199533591
H            8.53945250543933       -2.12966088253256       -1.12998680014015
H            5.59253499596048        0.13806197540134       -1.09924462746300
H            2.87440233829258       -1.13856235216975        1.51737707240099
H            1.77119180360196        0.66051988158357        0.42203385063645
H            1.88163135386748        2.02470366867049       -1.70891487107132
H            2.92466984483341        3.95120019056932       -2.81741441813764
H            5.12487412276626        4.75663870477221       -2.07475038566547
H            6.27223307963278        3.64721389181842       -0.20451927059296
H            5.22316949359546        1.73377299181948        0.91840985226458
H            8.55020463181264       -5.01473913261448        0.31817241853797
H           10.86434109931706       -5.38675487605393       -0.42881394080503
H           12.61475659704783       -3.75636492282567        0.13844021317586
H           12.05486632200728       -1.75723359765169        1.45435996701068
H            9.74244838499496       -1.39046029700159        2.20723186660726
H            9.73867759970093       -4.35050154097945        3.61125836653028
H            9.11248348049930       -5.83969051157973        2.89854207596947
H            9.24363492042620       -5.68459968916240        4.64993701811820
H            6.78922829654124       -5.63228224881880        5.50753888308882
H            3.48509740583887       -3.53220706698302        4.65070892478392
H            4.69479791349466       -5.52714512264674        6.60371327606796
H            3.29226233101368       -6.25221949869273        8.38140547581347
H            1.14711049879703       -6.26253960197188        9.57003607893630
H           -0.72591708848889       -4.90186036299602        8.74371744060775
H           -0.44978594227635       -3.52957054240310        6.72365632522278
H            1.67900951203661       -3.51086970457660        5.53123424896293
