54
 energy: -9.773742558483 gnorm: 0.000614254577 xtb: 6.6.1 (8d0f1dd)
C            1.31036163517916       -0.20803594623750       -0.17226662836439
C            2.77213978644156       -0.01783416963994        0.01925551442495
C            3.30902524944545        1.24382965581555        0.09041423107740
C            4.68521182597344        1.45025294086650        0.26133651478746
N            5.21822121353188        2.73811492108861        0.33326198480663
C            4.64374187079953        3.98971788293611       -0.23571806398149
C            6.06513993974593        4.48496228777237       -0.56232440854993
C            6.60973735602598        3.16379195033266        0.01239073265361
C            5.51026632072995        0.32137936514230        0.36875263485989
C            4.99012665640308       -0.93679048583988        0.29523409138545
C            3.61361692366823       -1.16052869989118        0.11452025411550
N            3.00507265892450       -2.38323700652683        0.02386607676652
C            3.63294077978120       -3.59659794741427        0.10686600240214
C            2.81304002573538       -4.75469953520514       -0.00176406503654
C            1.34561203231445       -4.61119445008178       -0.18845864257385
C            3.37001805900867       -6.00607871049781        0.08184201901476
C            4.74790816619071       -6.18938681737547        0.26459902739857
N            5.30166364703083       -7.46788239186069        0.34693523381963
C            6.70636100391353       -7.86696102595775        0.04989052348538
C            6.19759908298486       -9.20334924852399       -0.52246054856339
C            4.76083752314196       -8.72932981415909       -0.23355832885530
C            5.55297085939219       -5.04639112215206        0.37440334644150
C            5.01186998864042       -3.79736287268795        0.29577436767942
Si           6.13918468475169       -2.35851222913427        0.43839093763470
C            6.98125292085312       -2.35430477956098        2.11290662933879
C            7.36615686130784       -2.35090413847130       -0.97831519603739
H            0.76772795017681        0.73442547394039       -0.08477640217885
H            0.91216500250698       -0.89581377401778        0.57500766089335
H            1.10333183776924       -0.62794930521942       -1.15746388763139
H            2.66243948272991        2.09939870360866        0.02012318417097
H            4.10909400390860        4.57262542402964        0.52526042117449
H            4.01367081298966        3.78907840004162       -1.11147990311211
H            6.36840931216742        5.37668931152219        0.00320214362858
H            6.25656870283618        4.61992251620037       -1.63577262640896
H            7.22187871904083        3.26338139472613        0.91792346830149
H            7.08009700939862        2.50179730578071       -0.72549827986608
H            6.56749687362977        0.45297286954462        0.51603187836241
H            1.07401337691417       -3.56825014247681       -0.35477630004921
H            0.80599982417177       -4.96165282128699        0.69244878375705
H            1.00324901783696       -5.18691397830468       -1.04962764157417
H            2.73592095522852       -6.87115049159818        0.01193400038498
H            7.30700285951350       -7.94846218770197        0.96498670169100
H            7.17372263207329       -7.19975100414795       -0.68544423396612
H            6.50239180970969      -10.08284900680511        0.06059405009410
H            6.41662287058762       -9.34704709945722       -1.58933352752271
H            4.21519128129720       -9.31899359161874        0.51430575992930
H            4.15109968277773       -8.53877109048334       -1.12572666414370
H            6.61104141108772       -5.16000003373183        0.53079069612558
H            6.23218182127090       -2.36398359845595        2.89953048568227
H            7.59499248548778       -1.46473616037681        2.22268120323466
H            7.61244196924438       -3.23228200174776        2.21750807706216
H            6.83335555249607       -2.35502559375367       -1.92497372878839
H            8.00198912376535       -3.23041077197098       -0.92922110094961
H            7.98936654746669       -1.46243635897485       -0.92948845842951
