30
 energy: -5.859099815442 gnorm: 0.000921118385 xtb: 6.6.1 (8d0f1dd)
C            4.98762892247558       -2.56015932329551       -1.11868272825623
C            5.01127902781761       -1.73140758836602        0.11298932153019
C            3.84127454491962       -1.39872444537466        0.75366735719694
C            3.85247662800048       -0.64048200532332        1.92112101570707
Br           2.23044279956786       -0.19404388648979        2.77961436074906
C            5.03730705103267       -0.22619592015700        2.43707399479219
N            6.22085719912633       -0.55422015645778        1.82025702999812
C            7.46289914501487       -0.08060808517888        2.41721215350592
N            8.65619437450324       -0.52412262057130        1.70833251930476
C            9.88281443429416       -0.16241023783754        2.21169273180936
C           11.02546273148669       -0.55995241339376        1.59694547570461
Br          12.70715409076524       -0.06451818026722        2.29936694260638
C           10.94865548360498       -1.33782613428290        0.44497210467665
C            9.73346957587817       -1.70207671202892       -0.08500752204799
C            9.66228148067893       -2.55695562641467       -1.29687956016082
C            8.54014019414050       -1.29547747511587        0.56112539075984
N            7.37289668560354       -1.67760593858008        0.03142257339799
C            6.24958562374854       -1.31316406663292        0.65933323108588
H            5.89150169073188       -2.40044274237615       -1.70810908519720
H            4.13037339469737       -2.31031255688402       -1.74582093481698
H            4.93172545187655       -3.62065339519736       -0.86962831058101
H            2.89750713978872       -1.72690360447414        0.35317526886315
H            5.05935587336670        0.36218933372199        3.33756487255840
H            7.51491114033182       -0.43342283825247        3.44993390974453
H            7.45021466909192        1.01164732675733        2.43815557372541
H            9.92897556604045        0.43846438308791        3.10295342882698
H           11.86001877189461       -1.65678607444834       -0.03081702362339
H           10.49900740479018       -2.36136804341970       -1.96920507234776
H            8.73918632956048       -2.36882583304614       -1.84660696153701
H            9.68207257517119       -3.61312513970062       -1.02511205797459
