71
 energy: -13.419937649744 gnorm: 0.000297526212 xtb: 6.6.1 (8d0f1dd)
C            7.02362803649493       -1.25404247354626        1.56756133124318
C            6.16552746096870       -1.23302166599709        0.34758735214669
C            4.87401754708945       -0.90920005477189        0.44752419897198
C            3.90263836293505       -0.84812288387643       -0.70675691031761
C            2.72831907057065       -1.78636266414628       -0.39658803357442
C            3.41674241836379        0.59943477833663       -0.85377705313494
N            4.55155016346040       -1.27736417172196       -2.00352149500378
C            3.70694022392336       -1.28953789824967       -3.19892173432438
C            5.90167794614662       -1.59391417701424       -2.10253668867079
C            6.47166372760996       -1.92457851114133       -3.32863079072563
C            7.82056514178539       -2.22546220011739       -3.47176326098747
C            8.65227294553435       -2.21505791125691       -2.31765693509795
C            8.07509432268576       -1.87070629297670       -1.08587216527319
C            6.73601074262718       -1.56957595294217       -0.95039591454868
C           10.03459250743895       -2.50847113046928       -2.44722164396274
C           10.93049866325054       -2.49475831178839       -1.26975789886688
C           12.07576759388159       -1.68625656566687       -1.24303791253539
C           12.90470013272379       -1.67128043321350       -0.14243240079297
C           12.61648880502383       -2.45566516715886        0.95596349176644
Br          13.75769243666656       -2.42723445193354        2.46459231676631
C           11.49493305816629       -3.26006264992264        0.95315048425241
C           10.66002337755581       -3.28403997354102       -0.14290654300948
C           10.53450561454871       -2.80109535353194       -3.74255557415578
C           11.87766526364772       -3.14162260794511       -3.96426250436409
C           12.37581705325269       -3.42347015223074       -5.21913574161347
C           11.49816767429414       -3.37583747305614       -6.33796867130604
C           10.15851114768282       -3.06778689722904       -6.11903656950533
C            9.65030313944168       -2.78662395482055       -4.85686853520687
O            8.30601772410724       -2.50854685886479       -4.73059887705082
N           11.97255147165520       -3.63217006204218       -7.61934237630684
C           11.06344417330945       -3.56253810070264       -8.76456403665981
C           13.42302325632819       -3.94538589693529       -7.91027557436645
C           13.51090142436544       -5.30909863556688       -8.60849025383697
C           13.99914813071637       -2.83974137715256       -8.80424121527244
C           14.24292940201169       -4.00785125080535       -6.64397358880100
C           13.77768178068714       -3.76965714032275       -5.41527749746363
C           14.69553643517801       -3.85681889472722       -4.24269271038826
H            7.82551003183889       -0.51796140494003        1.49372246046970
H            7.47407197882621       -2.23743135417869        1.71064906280399
H            6.44812401385373       -1.02373533425563        2.46524905665122
H            4.47927556914013       -0.66553264415094        1.41813278363834
H            2.26671155612867       -1.52784585744273        0.55614586808423
H            3.07588876226119       -2.81696159254096       -0.33544407572122
H            1.95666123785336       -1.73634659879427       -1.16227431499904
H            2.97537263565878        0.95804825007966        0.07577382246768
H            2.66740158726782        0.69397807508718       -1.63750401243107
H            4.25152671916516        1.25219439116839       -1.10646058398624
H            4.09831595019065       -0.59332536710469       -3.93857777782525
H            2.68483905630402       -0.99644280940817       -2.97464518412860
H            3.68402495439099       -2.28986562073626       -3.62760640076149
H            5.86784097772118       -1.94346884608435       -4.21478607868217
H            8.70796050248901       -1.82614569596284       -0.22061117176390
H           12.28951400987489       -1.05764460803225       -2.09028768601596
H           13.78233693463812       -1.04582575029533       -0.12314157635080
H           11.28564413686183       -3.86881371824812        1.81767375812317
H            9.79667577468462       -3.92685500919500       -0.15181310823888
H           12.53641347030872       -3.19405501934761       -3.11887527004565
H            9.47090613044977       -3.04282535113119       -6.94171614157605
H           10.27345696318468       -4.30381292518853       -8.65794945894635
H           11.57879579583450       -3.75422978958613       -9.70192053066652
H           10.61723317319118       -2.57152637269136       -8.82575570109968
H           12.99230523259710       -5.30724278254957       -9.56526230150836
H           13.06267074618562       -6.08092124720192       -7.98397952394406
H           14.54890117748634       -5.58422478650768       -8.79391455406186
H           13.90084790717422       -1.87131511268647       -8.31512902442988
H           13.48366514223986       -2.78659599162710       -9.76133547029204
H           15.05645452534204       -3.01249567903077       -9.00358672132715
H           15.28233790936389       -4.25999848236478       -6.75949921903125
H           15.70388190531179       -4.14367490141569       -4.54418028565274
H           14.76717513398883       -2.89609901394476       -3.73075857636693
H           14.34399002208188       -4.60073563065121       -3.52636013041961
