30
 energy: -4.792617589002 gnorm: 0.000923426536 xtb: 6.6.1 (8d0f1dd)
C            2.07394102522389        1.28438903553117       -0.71334328588753
C            2.50258838501163       -0.82895886630686        2.21007769104409
C            1.89502019198927       -1.83111844994001        1.46716046082619
C            3.58453115235598       -1.82260382263618        1.54248985907416
C            5.18420644425717       -0.58050527915764       -1.58000660640940
N            5.03675536743504       -2.34374672331642        1.26459639134582
C            6.30309158375350       -1.82210180150748        1.65370977431564
C            7.19472257812602       -2.59863479602782        2.23852906681706
C            8.57562584890505       -2.13310373826367        2.51434543128026
C            6.74873545436032       -3.92573582335602        2.62824084885570
C            7.52367802793915       -4.95297162558381        3.14568803256678
C            6.64488919558511       -6.01631346399350        3.37231876418997
C            5.40473538027097       -5.57471269090138        2.98623879188442
N            5.42138035978301       -4.29493977217601        2.51630541297364
B            4.08411520089228       -3.45644871154360        2.14991505690926
F            3.55565731174461       -3.27186259696104        3.45190088993111
F            3.31986701668762       -4.33389834300758        1.37405798750750
H            1.75910496461497        2.25830158673510       -0.40980501965773
H            2.20175790001475        0.66371667944491        0.14657624372127
H            1.34136502234026        0.85431379578487       -1.36031895752194
H            0.82763329940065       -1.98134617203675        1.32836155644192
H            4.30073004283512        0.01662388641373       -1.62231669998219
H            5.16934241520861       -1.16753078196329       -0.68817243735715
H            6.04354280444672        0.05284380303919       -1.57565371956050
H            8.72034952405199       -1.11190679506882        2.16082009087154
H            9.30738083097367       -2.76731862268124        2.01363357066703
H            8.78425753302006       -2.15017961695970        3.58420429663082
H            8.58332593030270       -4.93067544825453        3.33859578739326
H            6.89078706950388       -6.98493180290463        3.77780314743251
H            4.48823213868836       -6.14568292670093        3.04367769701095
