67
 energy: -12.343653257513 gnorm: 0.000598338883 xtb: 6.6.1 (8d0f1dd)
C           -3.26404153337078       -2.64036506166700        0.58905716181124
C           -2.64355065066711       -1.29710158524551        0.49418684691063
C           -3.31429588186351       -0.07562318918443        0.63653696863228
C           -2.39944445636437        0.97141327839073        0.48743663580338
C           -2.64458032567885        2.42191244096334        0.55894061266733
N           -1.20488127353818        0.39502031820341        0.25166187448451
C           -1.28572277261167       -1.00308113270906        0.23339600582345
C           -0.17285600846301       -1.84650590571496        0.00539642678318
C           -0.30028574056914       -3.31386323227614       -0.00948742958288
C            0.02678927539226       -4.19989757646808        1.05289118545505
C            0.56085510539044       -3.75880263673242        2.36239092874848
C           -0.27502455294007       -5.50672376503117        0.62446519578757
C           -0.17367310021538       -6.76299176279024        1.25856944872622
C            0.26424471758162       -6.88380609611860        2.67134665734050
C           -0.48405123936835       -7.88167351396526        0.49249554365138
C           -0.43824535795781       -9.29138172530277        0.76505469459898
C            0.00323980116894       -9.96899070467205        2.00761695415882
C           -0.89278460301519       -9.94829522135387       -0.36605897520831
C           -1.20754536749143       -9.00280543701154       -1.36336005169559
C           -1.75519054409225       -9.24026642896735       -2.71011696790712
N           -0.95832041113591       -7.80402938862828       -0.83217065300588
B           -1.19112726062776       -6.50418333171436       -1.59275604099494
F           -2.54616372797224       -6.36882766514435       -1.87786977861344
F           -0.42159963495989       -6.50295866801614       -2.75178811039284
N           -0.75131743444728       -5.35589911524372       -0.69502284997329
C           -0.79474657200200       -4.09373391212936       -1.10008190996865
C           -1.19953365940652       -3.63136797766839       -2.43740696189186
C            1.06545098058145       -1.19826460287401       -0.21330936133911
C            2.34855598059934       -1.71116528917768       -0.50985137473250
C            2.72525126721024       -3.13695929569626       -0.66001017419990
C            3.21597032987950       -0.61813568286723       -0.63295759443785
C            2.49604118702284        0.56440095054618       -0.43563706949717
C            2.98347789970407        1.95370240280018       -0.47407696993634
N            1.22444444135904        0.19303592857236       -0.19074995411226
B            0.08946502581314        1.18349542893898        0.06146739993245
F           -0.04165815112920        2.02221769397092       -1.04114906454787
F            0.36018986521702        1.90529018379441        1.21997063101000
H           -4.26852550138723       -2.57901460191651        1.00834508844506
H           -2.67590793277441       -3.29773247393677        1.22962121175414
H           -3.33959474712652       -3.10682825491458       -0.39322114760349
H           -4.36607871023736        0.04111200836988        0.83295375194817
H           -3.30643991004858        2.74501437494884       -0.24455420387708
H           -1.70304095913549        2.96415738002915        0.46100428615617
H           -3.09654151571405        2.69577319535946        1.51228670965932
H            0.89835321752912       -2.72299384004764        2.31259987487443
H            1.41356948743265       -4.36593182383057        2.66643315943142
H           -0.20501288381350       -3.81483420950690        3.13614723301465
H           -0.04118052118026       -6.01790888704264        3.25605908184861
H            1.34831024679520       -6.97992620776327        2.73840179530562
H           -0.18788014351025       -7.74873292260283        3.15341812760523
H            0.94586857379145       -9.55625701300674        2.36768741943679
H            0.16071683978090      -11.03379251145172        1.83257075899115
H           -0.74583695848483       -9.87230302376110        2.79393100535624
H           -0.98748727310265      -11.01508938340965       -0.47262646754097
H           -1.26410617933747      -10.08612540767125       -3.19185944870291
H           -1.60844163807847       -8.35730021859911       -3.33373534279890
H           -2.82553028042507       -9.44215339339201       -2.66224532607073
H           -1.80769197869256       -4.39188780008931       -2.92872147036865
H           -0.32500690834503       -3.44634016184177       -3.06106946523681
H           -1.77900336105061       -2.70996826537923       -2.37813352076883
H            2.03009489771611       -3.65720889210361       -1.31944573721785
H            2.72007112848879       -3.64458286220489        0.30457093720952
H            3.72434470828342       -3.23539548218883       -1.08513687719445
H            4.26836256444936       -0.67626512612288       -0.85100050000724
H            3.70343728235109        2.13590023222599        0.32372195667656
H            2.14971052833654        2.64479542175686       -0.34244230999280
H            3.45988231045421        2.17470142828011       -1.42926046061908
