88
 energy: -14.842720431643 gnorm: 0.000604562188 xtb: 6.6.1 (8d0f1dd)
C           -3.35463701308122       -2.72007710177647       -0.42010422048597
C           -2.66410806077232       -1.40998652501424       -0.47440711937922
C           -3.27392124910313       -0.20376979479869       -0.78098845719835
C           -2.31840743906512        0.82371151412709       -0.70784578254768
C           -2.50715574123989        2.26984652001635       -0.91558282971593
N           -1.16745553188662        0.23371726028963       -0.36868470811802
C           -1.28617463162818       -1.14069024839636       -0.22646076078034
C           -0.20543122654529       -1.98093044237568        0.14795608830855
C           -0.35669695693901       -3.43443284961496        0.26698105441296
C           -0.80283367723467       -4.20466719798486       -0.83105901413490
F           -1.07276351647340       -3.61418423627341       -2.00631194973320
C           -0.95921361945618       -5.56593897570653       -0.71595120565224
F           -1.43125128133503       -6.27642547326117       -1.74905082590047
C           -0.65763926042027       -6.22083482831219        0.49666888633626
N           -0.82352847565511       -7.56098609705949        0.57278920146570
C           -0.65868244439986       -8.38720987070385        1.76073074786173
C           -0.65970145230224       -9.87960728524019        1.46352208604894
C           -0.56340019707633      -10.73450042666200        2.72559049308868
C           -0.49021719880938      -12.23196749975213        2.43256316701847
C           -0.48711167628867      -13.08841131347423        3.69503511112491
C           -0.29916103244685      -14.57312263824215        3.38067623402934
N            0.97216849500118      -14.83763886646963        2.75451154127650
P            1.05131889433459      -16.55021929846107        2.56763503616200
O           -0.11087923825208      -17.02548298083692        1.69193990419925
O            2.48862040241477      -16.89628604126683        1.89995016698684
C            2.63864442481768      -16.22152405221426        0.65616185586501
C            4.12396465645093      -16.06795108581850        0.32460801429544
C            1.88169682855120      -16.94547388427144       -0.45987159959071
O            0.95656622246681      -17.18499385523887        4.05433260224335
C            0.77303300179732      -18.59042029835489        3.97131302950273
C            2.06840505007825      -19.30390596650420        3.57647203199435
C            0.21919005663909      -19.11928825888354        5.29621008413390
C           -0.20230514504350       -5.45972291786090        1.59579665605344
F            0.11923261344407       -6.05752843059812        2.74955955850158
C           -0.06411614746884       -4.09536970983363        1.48223960004398
F            0.34431337067421       -3.39263621313954        2.55083667879369
C            1.03144345733373       -1.32927699558559        0.39223816164519
C            2.32984996028472       -1.82930810096930        0.70320738856612
C            2.73401426688325       -3.24226601503990        0.89245438590404
C            3.18075723837155       -0.74001962004685        0.80484968943486
C            2.45552495531887        0.43351945728717        0.53856892434928
C            2.94257036677927        1.82298878830801        0.48939704022578
N            1.20047947216798        0.04364152085923        0.29211431050692
B            0.11007957279033        1.02644699378543       -0.11823061608092
F            0.48931073834039        1.67490340341088       -1.28798721948795
F           -0.10504290831012        1.93553915645237        0.91132916573976
H           -4.43506627425204       -2.59171454438379       -0.35300688301811
H           -3.03239561750191       -3.29392806631540        0.44899042499993
H           -3.13964366234083       -3.30473295292554       -1.31524070557344
H           -4.31522432484260       -0.07053195634823       -1.01936382960262
H           -2.94633202950009        2.47041167348612       -1.89279744967695
H           -1.54554359041476        2.78239014922917       -0.86214996927731
H           -3.15741740639588        2.69087495743915       -0.14879616770390
H           -1.18124163413569       -8.06667314063417       -0.23682411295395
H           -1.45668705440762       -8.13065885165498        2.46504098213867
H            0.27814111247676       -8.09695477072478        2.24714462432577
H            0.16982917484673      -10.11693833656063        0.78729268311203
H           -1.56735498797788      -10.14304534474993        0.90812303629444
H           -1.42328233328726      -10.52791007220384        3.37348051577509
H            0.31298681241598      -10.43118430763316        3.31020958718480
H            0.40733426954854      -12.45013013389007        1.84190510095748
H           -1.32965028977151      -12.52617723604027        1.79180349060737
H           -1.41604135780002      -12.92756225133786        4.25502385768638
H            0.31874009638931      -12.75645475172312        4.35888134515169
H           -1.08630151564115      -14.91910013043828        2.69141502958327
H           -0.39428691512456      -15.19131821582062        4.28982541345212
H            1.73975864599994      -14.63969213915498        3.38678575083802
H            2.19839228705722      -15.21325206019311        0.80279494367529
H            4.58487603460905      -17.04784585052483        0.21194025051480
H            4.64800631465636      -15.55040701190507        1.12742097298316
H            4.27550083707427      -15.51302252653981       -0.60118282595116
H            2.29020114064885      -17.94452725753143       -0.60193595603899
H            1.95150264974715      -16.41144718310783       -1.40728649105555
H            0.82866924026700      -17.05717992686859       -0.20231084350482
H            0.01028799967009      -18.74014336192510        3.17674002418981
H            2.83585453068800      -19.12682447505148        4.32811997190200
H            2.44755185948859      -18.92626012872982        2.62762289036769
H            1.92339866371192      -20.38016664953046        3.48514529913133
H            0.93562823148136      -18.94382923820221        6.09701359982823
H            0.01569441035844      -20.18908262124879        5.25024047425542
H           -0.70263127489331      -18.60333103879075        5.56256249346805
H            2.27638424156803       -3.88214865650560        0.13779762218479
H            2.42764685180716       -3.60048383941416        1.87587477525567
H            3.81539575792300       -3.35503551213044        0.81367444499008
H            4.23211477101217       -0.78455574239008        1.03187361696059
H            3.39903077167863        2.11087945718562        1.43637752812012
H            2.11184236543117        2.50187123323430        0.29118147812906
H            3.67891227405912        1.94913359405000       -0.30431958095671
