76
 energy: -13.053084852576 gnorm: 0.000463945534 xtb: 6.6.1 (8d0f1dd)
C           -3.47835284443598       -2.50263745052557        0.64523581054162
C           -2.82168737986025       -1.20991939908668        0.33914736225758
C           -3.47448441000701        0.01079649956768        0.27338311577867
C           -2.53468448499347        1.01824667201037        0.00013826414432
C           -2.75474179776199        2.46888314083684       -0.13105663222284
N           -1.35232857698891        0.40211198356530       -0.09910624031195
C           -1.44103724866211       -0.97142102204791        0.07126357039777
C           -0.31404364218567       -1.83378020762589        0.02462961949459
C           -0.43866135766101       -3.28409089585376        0.19008531152120
C           -1.30132951953026       -4.03391602732892       -0.64128365576232
F           -1.98236683790377       -3.43092137419461       -1.62814746883723
C           -1.44011959496899       -5.39076227494208       -0.46683957447325
F           -2.31609358920648       -6.07673973813016       -1.21341383632381
C           -0.69134548489817       -6.06530691359362        0.51994020245187
N           -0.85067833071325       -7.40037563169165        0.66211232234719
C           -0.21509317959427       -8.25387869646291        1.65314354592760
C           -0.19361903040782       -9.71662852024408        1.23334873163763
N            0.61054622015324      -10.53041608988331        2.10958701810729
P            0.35241647123437      -12.14441771621289        1.55422858285732
O            0.75957364729170      -12.24661485410495        0.08354967084324
O            1.22041619388774      -13.14235933126169        2.49125355102509
C            2.58953861497173      -12.75553067310865        2.50657486448410
C            3.28381255497964      -13.36399060402385        3.72617323004397
C            3.29341532182354      -13.14609312614977        1.20458295519367
O           -1.22188957339359      -12.44602346933093        1.76702550693618
C           -1.49043529647705      -13.81432272253851        1.49879262188552
C           -2.78673538914564      -14.23474121946304        2.19469610059775
C           -1.54381105482674      -14.08058129410039       -0.00835469856242
C            0.19612736837879       -5.32852881102775        1.33339983277435
F            0.97740725080698       -5.95472246091924        2.22144066370257
C            0.30030611363138       -3.96463317419840        1.18490769472149
F            1.10222094695520       -3.28081571359800        2.01585534876549
C            0.94060476749227       -1.20588413435354       -0.19267207259197
C            2.25457144855367       -1.72825770465870       -0.38008977840987
C            2.67434664685200       -3.14946548792890       -0.38773827573079
C            3.10598106039202       -0.65183016123252       -0.57265816362310
C            2.35631543784659        0.53563937652732       -0.54189950022891
C            2.82117043621180        1.92116112678417       -0.72713308561548
N            1.08926258615681        0.16628295512588       -0.32857161371436
B           -0.05451129087952        1.17224978385930       -0.30761354535804
F           -0.10307306470992        1.84156285408923       -1.52405902729083
F            0.12890101939609        2.06037591723342        0.74492979170904
H           -4.45189609961242       -2.34760555005649        1.11036419506313
H           -2.87177092709455       -3.09451261117713        1.33079852556957
H           -3.62902270679360       -3.08218611199684       -0.26615761126010
H           -4.52857934986704        0.16710811390840        0.42598592045911
H           -3.46353415338374        2.68501725275678       -0.93034570224180
H           -1.81381733576719        2.96840483675523       -0.36640639860070
H           -3.13836508784224        2.89022397817484        0.79803140998680
H           -1.51731712411635       -7.88853031090654        0.06511863483257
H           -0.73071028479459       -8.12841549077225        2.61046502364391
H            0.80923010364835       -7.90359288048717        1.81423946492984
H            0.22603804661040       -9.81096759118723        0.21797886140334
H           -1.21776650248949      -10.12306406973864        1.17897755600433
H            0.23679446914397      -10.53741569778289        3.05173342282874
H            2.59106964666865      -11.65017390503590        2.60736678914832
H            3.25627231184838      -14.45075358110593        3.66724870947946
H            2.77628907563775      -13.07319418354885        4.64523659079257
H            4.32637507261401      -13.05352647631234        3.79351322297511
H            3.26926848459694      -14.22694041656567        1.07701206191171
H            4.33490941870430      -12.82560749710603        1.19700397002320
H            2.78985345613191      -12.70546705915216        0.34439495013425
H           -0.64331190050691      -14.37843962491485        1.94464002173908
H           -3.62263041506255      -13.65479746299797        1.80711782784032
H           -2.72777014698295      -14.04778173823452        3.26634913675569
H           -3.00415391180053      -15.29129571307365        2.03910339715933
H           -2.35440422311126      -13.51052054233056       -0.45904171733563
H           -1.70591216024617      -15.13575684919339       -0.22692374178110
H           -0.61841699156712      -13.76402076563015       -0.48926142273832
H            1.95891215285784       -3.76348199796723       -0.93494421258666
H            2.74725055350028       -3.53382449229526        0.63016022650442
H            3.64790805130167       -3.26836615241577       -0.86334265675295
H            4.16764501022289       -0.71434713263355       -0.73934643423692
H            3.56799102650067        2.18539923956495        0.02145304482903
H            1.98208596848319        2.61151200096396       -0.62901128016771
H            3.25718534476089        2.05664707270218       -1.71679990740634
