65
 energy: -13.172873730220 gnorm: 0.000802992282 xtb: 6.6.1 (8d0f1dd)
C           -3.31559674053932       -2.60825867631413        0.52026074125732
C           -2.67636127081892       -1.27548679610622        0.40507435919752
C           -3.33064375184863       -0.04857957924108        0.49824767085886
C           -2.39341163835505        0.98458882158384        0.34295112249440
C           -2.61553515832594        2.43961113998829        0.40249917771370
N           -1.20492833016904        0.38643569903021        0.16230945086423
C           -1.30284908276181       -1.00423460285515        0.17556087752161
C           -0.19281727761744       -1.86925849940251        0.01233146324783
C           -0.33835762724215       -3.34052709143289        0.01981249559586
C           -0.85564101098345       -4.02196855751125       -1.12099979098398
C           -1.22992912406205       -3.30626763218477       -2.27613312968035
C           -1.74655489671217       -3.94399502958671       -3.36609713493304
C           -1.91583934909300       -5.32829180296719       -3.35206761437264
C           -1.55690283464193       -6.05475163525692       -2.25373446405370
C           -1.00381626149068       -5.43620476697869       -1.11083613843726
C           -0.62592668237155       -6.19223025139352        0.03609838068048
C           -0.77432529942744       -7.66706646816762        0.04403588228785
C           -1.58722901618912       -8.30635967367890        0.98863864926408
C           -1.72277309416858       -9.67494103771991        0.99195572416240
C           -1.05488701766187      -10.44116091739919        0.05635212388909
C           -0.24784161631654       -9.83257939540410       -0.88533760536374
C           -0.10659490471704       -8.46464509831120       -0.89391113746799
C           -0.10181283900373       -5.51415941071313        1.17423948681078
C            0.32037266619442       -6.21810676351390        2.32353408480872
C            0.82061213786139       -5.56588573380781        3.41315458536378
C            0.92966015981181       -4.17545902713962        3.41202238618792
C            0.54700183850714       -3.45936335070145        2.31546098045201
C            0.03525887669311       -4.09873432508775        1.16830173735626
C            1.06408528784168       -1.23900128718302       -0.16074943307371
C            2.35710238192326       -1.77526266342442       -0.39193526588684
C            2.72397989603614       -3.20812198102360       -0.49335256410415
C            3.23905903255413       -0.70082959338311       -0.49060458151480
C            2.52303589339764        0.49659863718244       -0.33739433014278
C            3.02612098747858        1.87968849923216       -0.40112742848286
N            1.24079617660572        0.14395604141850       -0.15192071126029
B            0.10596810270762        1.15514694089628        0.00267769193757
F            0.03683748294607        1.94586706448066       -1.14145011667471
F            0.32884261484384        1.92309676583355        1.14281379032027
H           -4.32069316891333       -2.52615821676044        0.93520686807089
H           -2.73822960517966       -3.26250051861143        1.17418840842298
H           -3.39357730502181       -3.08803834578269       -0.45568393438455
H           -4.38452802382915        0.08718450778327        0.67042069328152
H           -3.43740415194135        2.73828848159117       -0.24896182853007
H           -1.71596301770463        2.96765780893664        0.08228673517579
H           -2.84711230083064        2.75504948129257        1.42033754745962
H           -1.10865750262457       -2.23725719836222       -2.28465829278207
H           -2.03022098600706       -3.37815087175934       -4.23822466977974
H           -2.33240479977527       -5.82387552400820       -4.21363323365672
H           -1.70631693061908       -7.11951905791127       -2.24867125515352
H           -2.11758175697278       -7.70642240652831        1.70806698573035
H           -2.35330794285929      -10.15081911080093        1.72500348599843
H           -1.16351025088060      -11.51336507606011        0.06078211238944
H            0.27372145826519      -10.43131129230803       -1.61396945966327
H            0.53241053106205       -7.98927668744091       -1.61812619963550
H            0.25284097487278       -7.29115737138564        2.33095796298459
H            1.13363176190888       -6.12516074947502        4.27957356118911
H            1.32208814461257       -3.66809854397338        4.27798065658085
H            0.63908843727181       -2.38740466092097        2.31268687659213
H            2.02070615176259       -3.74685777746359       -1.12885150152219
H            2.72276260297886       -3.68035198735097        0.48935970849059
H            3.71929400997054       -3.32809729444773       -0.92210427377974
H            4.29904852892265       -0.77426094701819       -0.66317062709474
H            3.90467785419173        2.00780553638682        0.23187849641860
H            2.25560401392032        2.57340589598969       -0.06124941562930
H            3.29331456253362        2.14754396463479       -1.42378682301088
