58
 energy: -11.438880330454 gnorm: 0.000800936242 xtb: 6.6.1 (8d0f1dd)
C           -3.32016982601007       -2.62230165046185        0.52263175172212
C           -2.68205691578341       -1.28766807908334        0.42631426853242
C           -3.33722043932794       -0.06154858724305        0.53570730935688
C           -2.40089567043369        0.97302801846121        0.39145993894715
C           -2.62591451185361        2.42730035836968        0.45766977707407
N           -1.21191632451229        0.37785545378119        0.19778748556333
C           -1.30931634149639       -1.01402927354778        0.19626192971881
C           -0.20353211416802       -1.87644432757963        0.00807633680464
C           -0.34959387778371       -3.34981546809189        0.00577133413201
C            0.01452065427437       -4.11385661153953        1.14772017631409
C            0.51866353655757       -3.47741080724202        2.30172152299626
C            0.89558936588933       -4.19536854809910        3.39639922579768
C            0.79011414395742       -5.58826544107828        3.39009921778309
C            0.29664142990537       -6.24011372798502        2.30014496405232
C           -0.12670374427056       -5.53313515614817        1.14239141912934
C           -0.66809319115161       -6.18793973169252        0.01326235742480
C           -0.88723908113791       -7.66356374832173        0.03507554955300
C           -0.98704619731478       -5.44243038013053       -1.14371599380437
C           -1.45427301853458       -6.05618275572314       -2.33705097318111
C           -1.76535818240787       -5.32000038588170       -3.44053166641071
C           -1.62600397780141       -3.93007612863144       -3.42872819407096
C           -1.17005366064644       -3.29958552534426       -2.31051157078741
C           -0.83759523362425       -4.02421722203217       -1.14637680131588
C            1.05042943784588       -1.24679209901953       -0.17509327342202
C            2.34185166690715       -1.78294202565467       -0.41387287124274
C            2.70515648696932       -3.21538069658225       -0.53212339211459
C            3.22386984239598       -0.70775936738205       -0.51617895339611
C            2.50975761371099        0.48920796117098       -0.35697799958188
C            3.01410055143458        1.87180740637601       -0.41974686554518
N            1.22739379989525        0.13726169203558       -0.16476508880785
B            0.09564266521758        1.14729043653745        0.01826403043917
F            0.00471633569438        1.94555273860114       -1.11915364829748
F            0.34077014251786        1.90868709557520        1.15817192483691
H           -4.34023420459634       -2.54261620454912        0.89942274493369
H           -2.76500143753799       -3.27095003515168        1.20085979304043
H           -3.35834312433991       -3.10605067295178       -0.45365646254028
H           -4.39073790976612        0.07218313491730        0.71145880564917
H           -3.40758056956820        2.73495800727752       -0.23717590105208
H           -1.70958435106079        2.95887351320383        0.19711909277271
H           -2.91731509715479        2.73003991060088        1.46349417177657
H            0.60866304859054       -2.40524689484546        2.30394535575108
H            1.28231823777148       -3.69099729505746        4.26666938975672
H            1.10555776761412       -6.14819623067200        4.25532404618538
H            0.25029230761756       -7.31394420105009        2.31271293489694
H           -1.10280746608740       -8.02415400385614        1.04019665865655
H           -0.01108347546640       -8.19380874014893       -0.33928118695103
H           -1.74596160643048       -7.95047694244120       -0.57110079711666
H           -1.54467351446757       -7.12635573681640       -2.38245101671327
H           -2.11738548194198       -5.81024519588390       -4.33347427503499
H           -1.87463697466111       -3.35885612827237       -4.30803147987500
H           -1.05692766927622       -2.22962366023694       -2.30389201597463
H            2.03125345850744       -3.73323544528442       -1.21516587608978
H            2.65146035189936       -3.71176077200004        0.43700337177358
H            3.71994081687697       -3.33229747732929       -0.91340744979712
H            4.28245162103316       -0.78151371460803       -0.69682057729099
H            3.87183371620869        2.00708102823356        0.23919465531613
H            2.23317334335759        2.56793694515877       -0.11090028285996
H            3.31344284796260        2.12958339534012       -1.43557692741482
