55
 energy: -10.995765911938 gnorm: 0.000921289826 xtb: 6.6.1 (8d0f1dd)
C           -3.34715314800198       -2.58055169553387        0.42077462340616
C           -2.69380927727427       -1.25337380569409        0.32271714586891
C           -3.34521426153844       -0.02206522926806        0.38880113480590
C           -2.39741520095608        1.00596737671008        0.26871731753376
C           -2.60116437601161        2.46488174756102        0.30885172314790
N           -1.20651647355987        0.40103293020807        0.13180341820594
C           -1.31112557704917       -0.99054638762504        0.13939648468441
C           -0.20033405849436       -1.85761506106877        0.00299187256949
C           -0.34951883598229       -3.32873859795108        0.00255479897423
C           -0.88244566208116       -4.00213364398841       -1.13519222823711
C           -1.26851414914367       -3.29560168367184       -2.29354047784777
C           -1.78228493956984       -3.94623801298161       -3.37663500405328
C           -1.93304147912404       -5.33709688399738       -3.36169849780027
C           -1.56443711024776       -6.05928069406588       -2.26687662583460
C           -1.02607044099651       -5.41926818608305       -1.12361660120789
C           -0.63312595660847       -6.14443899087820        0.00248968552231
C           -0.10377497230986       -5.51233292519895        1.12881683059341
C            0.29586361898713       -6.24664331967117        2.27233782947082
C            0.79960925963777       -5.61215156342155        3.36771640244506
C            0.92834171999145       -4.21910757347201        3.38287196464128
C            0.55537081204805       -3.47941294572990        2.29934747847752
C            0.03765151269107       -4.09500722572929        1.14047822394330
C            1.06356028195769       -1.23184220597080       -0.12218381094951
C            2.36566795192219       -1.76768094537769       -0.30004574065278
C            2.73881628198804       -3.19881271695423       -0.40403178083419
C            3.25274868171840       -0.69301385113344       -0.35162907272109
C            2.53159434098921        0.50459873412529       -0.22739849202942
C            3.02576577368764        1.89275050155639       -0.25298443576760
N            1.24217011840113        0.15197706681900       -0.10167105978489
B            0.10849686935273        1.16845467782199        0.01593882366668
F            0.07865320665972        1.95756562264651       -1.13052047314436
F            0.29641640083022        1.93301267663098        1.16409234772243
H           -4.35357239201314       -2.49128373054850        0.82962037491030
H           -2.78203534979182       -3.24720004319959        1.07233623416708
H           -3.42396310226877       -3.04949304444098       -0.56008861672400
H           -4.40394869471395        0.11926584522823        0.52182537853364
H           -3.66079198848889        2.72132733722809        0.28391055271922
H           -2.11003575933039        2.93685709256209       -0.54310127446992
H           -2.16351922390522        2.88393257811246        1.21559572633748
H           -1.15530082781497       -2.22581715522889       -2.30930031847349
H           -2.07521087243188       -3.38768319566322       -4.25037049193512
H           -2.34152725933860       -5.83734143927222       -4.22436741031918
H           -1.67797242819281       -7.12951234846202       -2.25849600065419
H           -0.74098547171243       -7.21371136266121        0.00247592623730
H            0.19452444873569       -7.31805775438828        2.26379917201064
H            1.09957895533229       -6.18354668159043        4.23075626997613
H            1.32531639925658       -3.72981888260473        4.25707916019810
H            0.65681420959663       -2.40848109666917        2.31539532919022
H            2.04421251640087       -3.73738494349951       -1.04845285762879
H            2.73036403411821       -3.67599716885346        0.57587438650434
H            3.73834801253613       -3.31351809337960       -0.82338879787779
H            4.31934744761155       -0.76792048281736       -0.47554633346004
H            4.11546277784620        1.92852397796053       -0.25719802537463
H            2.66377701151340        2.43719280555071        0.62005829830570
H            2.65761664514208        2.40948059802442       -1.13984048699010
