75
 energy: -15.347355252876 gnorm: 0.000723084771 xtb: 6.6.1 (8d0f1dd)
C           -3.23362203990175       -2.43044516860156        0.34438806572499
C           -2.58101321461528       -1.10822096976842        0.18791318989121
C           -3.22523062398946        0.12167498888371        0.22803538102127
C           -2.27804268952338        1.14473028686024        0.03790140728646
C           -2.49444011028402        2.60195233893783        0.02200949827467
N           -1.09592103795095        0.53430036002797       -0.11434091957481
C           -1.19924429350841       -0.85465961582403       -0.04463818372264
C           -0.09719944500655       -1.72488255625571       -0.17147413921820
C           -0.24936589831797       -3.19712988141459       -0.09299843728915
C            0.10130602676180       -3.89378864167483        1.07007051753373
C           -0.04142378129112       -5.25347284576017        1.14527130070375
C           -0.54109498479597       -5.98944746206873        0.05970271448997
C           -0.69374132183416       -7.45972792296459        0.13905434967532
C           -1.51887994753943       -8.04802260420851        1.14095332866627
C           -2.23691004434148       -7.25034341656434        2.05934585799301
C           -3.01499440032898       -7.80875136440178        3.03085135662773
C           -3.11807841757103       -9.19576475789884        3.13591713137208
C           -2.45742107152584      -10.00099134759190        2.25531643768024
C           -1.65741227861788       -9.46323245487490        1.22203822790774
C           -0.99128171525358      -10.30766059632847        0.29030767873894
C           -1.14517017771579      -11.78106444136307        0.36792052968232
C           -2.40063017274591      -12.38426087402453        0.22316495949321
C           -2.53924032572479      -13.75080582959734        0.29337398365574
C           -1.43355263616487      -14.55057527924752        0.50831189627172
C           -0.18508173378383      -13.97754890354016        0.65418415326106
C           -0.03906614313379      -12.61169664077976        0.58603035192325
C           -0.17566345334827       -9.72095179052857       -0.71737325958052
C            0.48395542767224      -10.51720735017503       -1.68057066062352
C            1.28596238840094       -9.96222514479310       -2.63403647077582
C            1.47288666620236       -8.58064524897264       -2.67549359677019
C            0.83839256535022       -7.77535365026719       -1.77552026069542
C           -0.01847944313567       -8.30713133570517       -0.78643163119249
C           -0.89027621961958       -5.28746914946247       -1.10443528945595
C           -0.74847419770331       -3.92759650753804       -1.17846029581743
C            1.15855872846366       -1.11630356666759       -0.37388723168779
C            2.45369142677546       -1.67083533028904       -0.57959691400581
C            2.81457755409868       -3.10849773904883       -0.61691535518713
C            3.33683893646647       -0.60979080720184       -0.73192917118188
C            2.62524557351532        0.60060097006987       -0.63435080801830
C            3.13186958557431        1.97633774521231       -0.78072647853928
N            1.34454475941208        0.26454860689599       -0.43458594727297
B            0.21670169163730        1.28882617957522       -0.32021954778216
F            0.14236979660362        2.02591273487530       -1.49986795421808
F            0.45185386615996        2.11150772964548        0.77930431744243
H           -4.24391278042421       -2.32385646507188        0.74059499539972
H           -2.67245310387035       -3.06320350978690        1.03259217201230
H           -3.30100416777615       -2.94690912758594       -0.61348497251328
H           -4.27949036180264        0.27142308666734        0.38583712055472
H           -3.23808558318620        2.87882843800748       -0.72544600928350
H           -1.56208619125777        3.11463993618777       -0.21891393734634
H           -2.83248159894090        2.95591353176123        0.99617616007579
H            0.48523581669528       -3.33908067140737        1.90873967450712
H            0.24524975173077       -5.77921049595037        2.03966936007806
H           -2.17279965493135       -6.17991266357160        1.98099475041805
H           -3.55076137619692       -7.17902584236073        3.72211257214984
H           -3.72573353301370       -9.62935908192445        3.91319506582855
H           -2.53864580138477      -11.06919015752816        2.34800555072221
H           -3.25893222361980      -11.76007202728433        0.04301861983105
H           -3.51241818293004      -14.19919802664894        0.17787781339510
H           -1.54496022159235      -15.62116116306249        0.56198024585374
H            0.67641728079456      -14.60248444041158        0.82373696427177
H            0.93103234137263      -12.16225870702483        0.71117418217846
H            0.34169909931063      -11.58283876575883       -1.66068942460232
H            1.78127057606303      -10.59069015676670       -3.35591912485027
H            2.11876654033768       -8.15061454768952       -3.42338303260081
H            0.99841782020387       -6.71264776312760       -1.80953965655294
H           -1.28930318244112       -5.83601962766761       -1.94014933637617
H           -1.01872056536489       -3.39949723029411       -2.07652837218219
H            2.12603501908019       -3.66698895560510       -1.25162176105569
H            2.78304396838180       -3.54344644565781        0.38234708238729
H            3.82082779060726       -3.24981713293409       -1.01261530103490
H            4.39583772392899       -0.69651957213008       -0.90464525550970
H            4.11002263278446        2.08901757812671       -0.31269324611457
H            2.44337896053283        2.68031146644722       -0.31169826465423
H            3.21849003307833        2.24348779446185       -1.83396871770676
