68
 energy: -13.542570750703 gnorm: 0.000799359708 xtb: 6.6.1 (8d0f1dd)
C           -2.87722083914654       -3.72262026758690        0.93755937142908
C           -2.54513453754885       -2.28127668229292        0.84744808121368
C           -3.43291903165144       -1.24290262518664        1.09008614561054
C           -2.75701575905720       -0.01773579438898        0.95226348598162
C           -3.27467808139048        1.34681732157584        1.15183665854938
N           -1.49643478613096       -0.32633990227838        0.63248713855988
C           -1.28640229604968       -1.69779822458377        0.52527441203249
C           -0.03092180716217       -2.27061145187506        0.20464146979902
C            0.13437001088699       -3.71393237154405        0.03681614050295
C           -0.48658916617141       -4.49779831023432       -0.92912569486151
C           -0.16282133135407       -5.84554704137382       -0.86885781998550
C            0.72462889798910       -6.17165705122305        0.15355384595917
C            1.24268963646625       -7.45355430928669        0.46570352471740
C            2.12323475179081       -7.61999741065057        1.56372783889560
C            2.62233450667685       -8.83089966536127        1.89393934815104
C            2.27981121523829      -10.02192137971072        1.14787909269318
O            2.79947425907464      -11.13281116852050        1.60364299643894
S            2.42985204034949      -12.47969437403549        0.83773831647403
O            1.73833891993129      -12.40843075347657       -0.48615708528301
O            3.60420497911690      -13.41563146162318        0.85608328217192
C            1.25033820140120      -13.27202139070056        1.96576499129167
C            1.57183023034631      -14.54337650095217        2.38026702631865
C            0.74683754075928      -15.23216215315242        3.24328812748930
C           -0.41422510770085      -14.64218217878599        3.70006410154520
N           -1.29142755052813      -15.36197965300324        4.62087747951536
O           -0.95988498153965      -16.49566519233771        4.98568203209401
O           -2.33003248087241      -14.80827852396335        4.99902014665937
C           -0.74162895181468      -13.36882140825139        3.28541696610333
C            0.08185933964986      -12.67775009411591        2.41822625739007
N           -0.33591565705515      -11.32823012411462        2.01662934133458
O           -0.13743497950640      -10.39104196541113        2.79915740279602
O           -0.88802045585104      -11.18095054180402        0.91996586455806
C            1.39714443079136       -9.82166907009480        0.01859168135604
C            0.90256122920603       -8.60360986197475       -0.29066028603496
S            1.13087381712815       -4.72853300639554        1.03364809828980
C            1.04340884971564       -1.36198763389749        0.03886868379088
C            2.40811367765707       -1.54816609454610       -0.32375855782482
C            3.09822828232314       -2.82479191366841       -0.61920533560142
C            3.00441307700886       -0.29571524548492       -0.35454094653536
C            2.04092011619989        0.67986550110229       -0.04488434629623
C            2.19743981700650        2.14364376514449        0.00757486701423
N            0.90068943464942        0.01648484286270        0.17056519741927
B           -0.41282240156961        0.72998460926432        0.46252788218864
F           -0.73647540988396        1.55148799722960       -0.60656926419757
F           -0.29045479007689        1.45741619859035        1.63662198903074
H           -3.74530946325036       -3.88242630229406        1.57707260502838
H           -2.04800679764277       -4.28922244426769        1.36082361847609
H           -3.10687819156868       -4.13190877134267       -0.04585960005304
H           -4.46792140408242       -1.35515214637830        1.36352367511455
H           -4.16121412044493        1.52213706889636        0.54269133744477
H           -2.51554784437475        2.07769422695766        0.86899038951411
H           -3.53179032598988        1.51517666123003        2.19744367888546
H           -1.14928511034056       -4.07854915602771       -1.67020199856288
H           -0.56559714047573       -6.57319839345614       -1.55439332912060
H            2.38140096362774       -6.75430575353047        2.14751259520752
H            3.27191707215701       -8.95273888808611        2.74240959291562
H            2.48679303854033      -14.98999167050085        2.02082623814294
H            0.99063150137794      -16.22775469550544        3.57551889157944
H           -1.64871609353834      -12.91235454271468        3.64516172858425
H            1.08301377651271      -10.67744288687372       -0.54956569581658
H            0.22188409373160       -8.50502692447652       -1.11724188092551
H            2.46845576810948       -3.47783954858038       -1.22306442558326
H            3.34957705586896       -3.35027384586098        0.30193295719026
H            4.02263468711416       -2.65164103646370       -1.17010515969633
H            4.03386419152960       -0.09835688636286       -0.59908252685468
H            2.99432271109266        2.42730207925973        0.69476667660944
H            1.27037980288557        2.60491241463460        0.35136356349855
H            2.42899496987589        2.54516400386187       -0.97878288035344
