52
 energy: -10.338677601222 gnorm: 0.000828729844 xtb: 6.6.1 (8d0f1dd)
C            7.01509851138402        0.30122079720422        0.07929556242910
C            5.81239440767635        1.14017354992755       -0.13585740260503
C            4.60339078263743        1.00712406986771        0.52789551709777
C            3.71091558940864        1.99397446879922        0.06339958757100
C            2.31394169181703        2.22890107579203        0.46710809734382
N            4.38150007801444        2.69894968152862       -0.85334817317168
C            5.68418436482460        2.24319909008068       -1.03092332623528
C            6.59352387523640        2.82527578583898       -1.93435118541873
C            7.97573374450258        2.31293486922405       -2.09197056393779
C            8.30431351694999        1.45433657466039       -3.14437785766212
C            9.59115158041512        0.97985066902122       -3.28696697343533
C           10.56932651078463        1.34964873643998       -2.38801840507483
Br          12.32977252141362        0.69636057488915       -2.58957992579113
C           10.26451851290914        2.19537546709370       -1.34233700911919
C            8.98065520525681        2.67520428207306       -1.19108820332211
C            6.11507596255408        3.91762838269242       -2.68717330086849
C            6.76121531705639        4.74968833923238       -3.67392394287960
C            8.15970386307729        4.63253418496106       -4.15107555379001
C            5.84472649583696        5.67433550714230       -4.10479321625110
C            4.61322255683768        5.46614916370277       -3.41017046522777
C            3.39210014094506        6.15010160782196       -3.50590361155621
C            3.15585669286158        7.20950748208242       -4.33326939041497
C            1.91555472041580        7.87860748755471       -4.41554848290632
C            0.73691180999719        7.60214185217739       -3.69952889128828
C           -0.22061262082278        8.50876948483047       -4.10714140084309
C            0.35524466129610        9.33855778556859       -5.06448885620701
N            1.63898297604177        8.95970506263172       -5.24974687603220
N            4.84038078210418        4.40822357703110       -2.57860056311161
B            3.77635799171220        3.86903859994663       -1.62552291059471
F            2.68185085330776        3.42190403945982       -2.35854602819501
F            3.40768874175798        4.86893367602630       -0.73114022436224
H            7.78127390534516        0.85412277587780        0.62325261591398
H            7.44037120948654       -0.02236609019406       -0.87096000931679
H            6.77169795002592       -0.59129512491775        0.65643652220226
H            4.37685834068627        0.26510278859877        1.27431804713359
H            1.68715055707672        1.37291027765317        0.21735128896264
H            1.91790002443799        3.10250953643065       -0.05256845651941
H            2.24244283477905        2.40986257749405        1.53965134818171
H            7.53621215436410        1.16695589805556       -3.84100906043269
H            9.84708298172329        0.31759229154735       -4.09771030879893
H           11.04132289629405        2.47338563755018       -0.64909855471216
H            8.73699871117589        3.33613044794015       -0.37764928530186
H            8.29502305328251        3.72421668518733       -4.73831697946888
H            8.85587592727598        4.60155562127372       -3.31267626542303
H            8.43216514584526        5.48097060418866       -4.77914326450093
H            6.02664479022604        6.43266653277558       -4.84563678515549
H            2.59961129162660        5.79404563450386       -2.87310568337625
H            3.95166152126187        7.56163670753715       -4.96297799463777
H            0.60526235740034        6.82308083896387       -2.96735802957248
H           -1.23587056008011        8.56423067526575       -3.74767197518146
H           -0.13094313315606       10.15183911275407       -5.58080192155073
H            2.32097620271664        9.37326064621043       -5.88900127258865
