45
 energy: -7.732335253314 gnorm: 0.000864977684 xtb: 6.6.1 (8d0f1dd)
C            1.05777769542832        0.22893808926040        0.60033720603485
C            4.73249932571725       -1.67047517846834       -1.48568145324317
C            4.11242530995801       -0.49867282229301       -1.10386220110409
C            4.62225824902836       -0.57480086323510       -2.72197720466556
C            7.57878712126809       -0.43377584742063        0.44999595012345
N            4.96392181504381        0.12114238696772       -4.13994824605266
C            6.16417753391664       -0.09378184638044       -3.27706909192259
C            7.13556702541591       -1.03120659112949       -3.60044944444285
C            8.46255684950343       -0.99119171046781       -2.96718154542120
C            9.02388263394045       -2.13655290564530       -2.39617879634811
C           10.24534354115570       -2.07884492857832       -1.75463386185625
C           10.91907889100075       -0.87856890758961       -1.66137969570703
I           12.75371105563425       -0.79486403198134       -0.68283633429589
C           10.37635248304125        0.26755243798691       -2.20492892631025
C            9.15515583037658        0.21627913182958       -2.84814697657859
C            6.66964405945393       -2.16135446131207       -4.42193311236057
C            7.43648783001363       -3.09813706353330       -5.11877801485513
C            8.91170456708573       -3.19602050530345       -5.24436214532393
C            6.50946564835798       -3.93003582896112       -5.76588839877858
C            5.25982524575862       -3.44172599160577       -5.46338052943825
C            3.97911285426204       -3.98027007469055       -5.97216612689779
N            5.31539757257727       -2.35077049442472       -4.63972568213392
B            4.12620021993188       -1.38981068062883       -4.28389758242875
O            3.02792246620170       -2.21772302241702       -3.62072779341153
O            3.46722840797170       -0.96247743026152       -5.59652752177175
H            0.32229870727489        0.60680352535045        1.27572519137477
H            0.92374434514712       -0.82269339681534        0.47339217476309
H            0.96493095331943        0.71862157407570       -0.34383388646885
H            3.70301936523546       -0.25777044142547       -0.12812609638268
H            6.72970307842888       -0.74231754312020       -0.11837721007691
H            8.42806657574427       -0.36765301280891       -0.19196408005873
H            7.77083708287246       -1.14837080718302        1.21965307622383
H            8.47464778902407       -3.06089330037398       -2.43439750083768
H           10.67684589725949       -2.96313145770936       -1.31154527266330
H           10.91239783117137        1.19981531593727       -2.11521196482138
H            8.72184521612526        1.10934064058766       -3.26349152691141
H            9.31970177386503       -3.90871399745370       -4.52748305368554
H            9.38647652444738       -2.22934848846902       -5.07586452920956
H            9.19285697047735       -3.53079185683752       -6.24322365583082
H            6.73365780665224       -4.76433533947600       -6.40824633317609
H            3.99367423933071       -4.06328326418952       -7.05884246308900
H            3.16139714010739       -3.31280649475474       -5.69443575070729
H            3.77444450580826       -4.96475049827794       -5.55170561627197
H            3.33635112371369       -2.75273465133175       -2.86875918160421
H            3.98870884090673       -0.25297736500768       -6.02278479219227
