32
 energy: -6.545027646085 gnorm: 0.000390511338 xtb: 6.6.1 (8d0f1dd)
C            0.95535098405283       -0.10286533093087        0.07679755512132
C            0.23168293149900        0.58628195570359       -0.87020481246661
C           -1.14407403598695        0.63727247191638       -0.88632148768579
N           -1.84774364447193        1.27917501053294       -1.84484932561272
C           -3.24616552353818        1.42809445747452       -1.97951976790393
C           -3.77558898518457        1.99161911006389       -3.13980418417457
C           -5.13520745190036        2.14663418546333       -3.29046582085779
C           -5.99354635720244        1.74644162019120       -2.28509827390445
C           -5.48537761474431        1.19000101670312       -1.12744199283931
C           -4.12615389748741        1.03077873370034       -0.97433025516766
N            2.30618272041799       -0.13207823738709        0.09671570556393
C            3.17174896249506       -0.81176800087273        0.98272637765633
C            4.54277119226941       -0.56107526006569        0.94378680645749
C            5.40254476494405       -1.21401633007343        1.79807222970591
C            4.91245171127871       -2.13331668791881        2.70494236714425
C            3.55738989089326       -2.39686687868021        2.75355436186074
C            2.69404348755269       -1.74347602865763        1.90271841158374
H            0.42531397986625       -0.63604124245594        0.84381998970062
H            0.76915268223416        1.10740382588857       -1.64179535627691
H           -1.68835369326822        0.12929546103657       -0.11222134059768
H           -1.29945820001422        1.70668941577683       -2.58800883870567
H           -3.10508824433820        2.30033873227160       -3.92290927778000
H           -5.53054417225390        2.58021081370180       -4.19463515021378
H           -7.05780681304592        1.86930107320584       -2.40337405581560
H           -6.15479610463802        0.88193601240008       -0.34079066104448
H           -3.73552347398987        0.60805991075044       -0.06638410773466
H            2.77416308452522        0.42360809284335       -0.61597013920448
H            4.92220004678738        0.15729900411210        0.23802846651664
H            6.45964732741397       -1.00698582968229        1.75985950367024
H            5.58638324716615       -2.64508303479760        3.37250742993195
H            3.17526533348497       -3.11807414722393        3.45760487886500
H            1.64198586518313       -1.96202389498933        1.93595076420564
