63
 energy: -11.189070966128 gnorm: 0.000861205476 xtb: 6.6.1 (8d0f1dd)
C            7.20795024582737        0.19378432910793        0.49040357735932
C            6.07078242169670       -0.13700030920345       -0.40118139901640
C            4.86357988898419       -0.71463464472200       -0.00132476842299
C            4.03925695482336       -0.88132356014889       -1.12195131559054
C            2.67599768080138       -1.43795833410453       -1.17540039541268
N            4.73622678048963       -0.41339952864510       -2.17726144579867
C            6.00519836485325        0.05055866890603       -1.80766241126071
C            6.94877689272830        0.55134969454410       -2.72579945572572
C            8.29626534762937        0.99556466642589       -2.29605831406719
C            9.31479567727181        0.06654684392112       -2.06480950056075
C           10.56933475091178        0.48407028015012       -1.66509351840051
C           10.82947049740256        1.82918475973273       -1.49045491972537
I           12.73066748936418        2.45430058320494       -0.88673038233143
C            9.83554010816602        2.76165034131726       -1.71436344678601
C            8.57800712619812        2.35246239385103       -2.11347966648179
C            6.54619324481879        0.60561455003470       -4.07457144422527
C            7.22969002058081        1.03470187631111       -5.24357102754751
C            8.62088401624815        1.53972615515469       -5.32921968107112
C            6.33931797616341        0.91694452103604       -6.31317238361918
C            5.11921479723047        0.41272837199426       -5.84375190083700
C            3.89721303157974        0.11681050558461       -6.61198911206623
N            5.27063402874207        0.23067102083983       -4.51631718579040
B            4.19064994124713       -0.35884442784699       -3.60612053930197
O            3.86779753594885       -1.73133507829330       -4.06592749466723
C            4.92564038205678       -2.61026636593546       -4.40425292431656
C            5.63698199464408       -3.12758181383951       -3.16272028720151
C            4.39812465340089       -3.74926546734489       -5.26792667443459
O            2.99064541874026        0.51258228099848       -3.63219239190841
C            3.03923978410783        1.75229533268701       -2.94877825926576
C            3.86136097395762        2.77809347792140       -3.71488433980624
C            1.62576010713364        2.25178719732159       -2.67774162503762
H            8.04439349660041       -0.48533851847980        0.32160144402158
H            6.92005718410340        0.11712979196481        1.53981735331262
H            7.55706053779264        1.21216630394346        0.31535198057828
H            4.60397362173096       -0.98642231485438        1.00733779993281
H            1.98617701661206       -0.84128745002479       -0.57772160939363
H            2.65709645307633       -2.46247685309127       -0.80269295829085
H            2.31541841490912       -1.44405835123608       -2.20519777351809
H            9.10674455753769       -0.98023325567498       -2.20469506653284
H           11.35610030219339       -0.23241293934743       -1.48569608001412
H           10.05429089707588        3.80897890626041       -1.57380514882160
H            7.79929825088101        3.07484676452917       -2.28770265143340
H            9.30908032778380        0.87891649694946       -4.80090327613873
H            8.70130756810515        2.53440523037708       -4.88935135951334
H            8.95171365831291        1.60400580750916       -6.36663107607440
H            6.55481616023679        1.16907727979398       -7.33720006076815
H            4.08222011705077       -0.65667560996503       -7.35823564547951
H            3.53040702447719        1.00805724788525       -7.12247989275116
H            3.11222870383015       -0.23791516978444       -5.94203464236997
H            5.63157333572248       -2.00721724394156       -5.00007514358844
H            4.93595816346725       -3.66498308588765       -2.52524836943119
H            6.05258983669699       -2.31015939364195       -2.57594948619717
H            6.45029737474669       -3.80709680614889       -3.41986419194714
H            3.67003535286205       -4.33598088134101       -4.70899824156443
H            5.19798985289343       -4.41761554487266       -5.58875522198985
H            3.89496710878461       -3.36390139085124       -6.15481818952934
H            3.53356746548485        1.53980923702225       -1.98581340601435
H            3.42731311162987        2.94725856676139       -4.69949760444152
H            4.88368169364406        2.43489803034801       -3.86287268551574
H            3.89829864348858        3.73453255643108       -3.19229284308507
H            1.10572872344333        2.43080302336885       -3.61803371512307
H            1.62817795542831        3.18257808175617       -2.10938587532258
H            1.05120895565317        1.51037316327909       -2.12247172968306
