65
 energy: -12.880919009802 gnorm: 0.000641954081 xtb: 6.6.1 (8d0f1dd)
C            6.78566947747345        0.59417762882062       -0.36135411448998
C            5.71911993409612        0.33603074741789        0.63499432969503
C            4.51890866015382        1.04095107573845        0.74928585146974
C            3.76959906140489        0.50734099037281        1.80618325931333
C            2.44281544013480        0.92546218279297        2.29066218261781
N            4.50232927063022       -0.50052357471769        2.31800248466035
C            5.71817132842325       -0.66542385912444        1.64074048870939
C            6.67310375368091       -1.64193304727773        1.98714423904951
C            7.95912961435289       -1.76937670341943        1.26163634497797
C            9.10120409927124       -1.10058669742050        1.71091580026808
C           10.29883395353815       -1.22466189158830        1.03433387166732
C           10.37744929265056       -2.01387588787298       -0.09609383528408
I           12.19220515640286       -2.19900239568401       -1.11306465724504
C            9.25918429622498       -2.68154568443010       -0.55507192759098
C            8.05752237294419       -2.56307594254372        0.11538118773405
C            6.34005597076956       -2.49036981449442        3.06174727216635
C            7.04527536885001       -3.56358731245932        3.66623479179633
C            8.39616053334590       -4.05534354633040        3.30541850615046
C            6.23908273332102       -4.06624617357615        4.68981394764546
C            5.04195652742249       -3.33944170347884        4.73320795383903
C            3.90507834321338       -3.50281932197619        5.65546397869880
N            5.12683984125622       -2.41269135446302        3.75929579346924
B            4.03263323381366       -1.38061827387563        3.47821847135130
O            3.81423541921317       -0.55614690051315        4.69557598524076
C            4.82527828905403        0.09094042776692        5.37367190922429
C            4.59908983393707        0.54545409292824        6.67273442367392
C            5.59555442735061        1.17941952677237        7.37838625136474
C            6.83631212863351        1.37676582830986        6.80345630438662
C            7.07475377088322        0.94051425367651        5.51498930469836
C            6.07921767044248        0.30873974723673        4.80970863826486
O            2.76751267436886       -2.06045285352386        3.09270605977529
C            2.61111567190085       -2.76644559392029        1.91857821972795
C            1.32738811094694       -3.03489712487787        1.44376849087268
C            1.14388529436384       -3.72029366379388        0.26503233131508
C            2.23465954515137       -4.15566838762660       -0.46276513006601
C            3.51272108647861       -3.90683183032790       -0.00239027579854
C            3.69579089559487       -3.22416214165992        1.17570002008333
H            7.73517039375085        0.80681994999549        0.13085583317709
H            6.53641663449234        1.44924645125871       -0.99060364408886
H            6.92731754684454       -0.26965585715696       -1.01147531754063
H            4.21545795143715        1.86461382973664        0.12637538892087
H            1.68798235726471        0.80625688702768        1.51314577848564
H            2.45286465447727        1.96858327123012        2.60733626854917
H            2.14943238553073        0.31365187488017        3.14500663633153
H            9.03239784813879       -0.48796247849221        2.59308542227688
H           11.18200236517089       -0.71005707305186        1.38012937321549
H            9.33784936952692       -3.29421178909253       -1.43984152997190
H            7.18217979361568       -3.08148275903972       -0.23577557528014
H            9.15258325140010       -3.29654368198946        3.50779301508308
H            8.44760679338675       -4.31072707281267        2.24667331323778
H            8.65467665749386       -4.94761692676479        3.87656291255120
H            6.49564520810254       -4.88070300976795        5.34508385231267
H            3.53704804780638       -4.52872604020475        5.64685927528047
H            3.08796455424877       -2.84433242537764        5.35801450456909
H            4.19147572850012       -3.24600154895186        6.67527576137950
H            3.63033763700572        0.38204686943809        7.11017236956814
H            5.40803688827635        1.52162411858127        8.38300386557991
H            7.61596567467946        1.87232023217967        7.35847784708296
H            8.04004061095564        1.09682257718682        5.06174570333740
H            6.24827054245026       -0.02235835319940        3.80556840259411
H            0.48696006815222       -2.68639899576742        2.01716451558409
H            0.14621568588873       -3.91686944358555       -0.09214039084493
H            2.08880925559702       -4.69102796320221       -1.38666868533528
H            4.36605769070112       -4.24941978744314       -0.56461178378341
H            4.68144132341216       -3.03900567647162        1.55065813429594
