49
 energy: -9.170754154253 gnorm: 0.000708150783 xtb: 6.6.1 (8d0f1dd)
C            6.98893425330726        0.17939255745056       -0.23347721234835
C            5.83219404872468       -0.69406813888707        0.07773316000877
C            4.58096769731266       -0.25328605883499        0.50544283009455
C            3.74799756162094       -1.35817819371513        0.72287005439067
C            2.34508540709861       -1.32429524973893        1.17402246991869
N            4.48103544921470       -2.45329794418220        0.41758659223740
C            5.79177807653193       -2.11291217357756        0.05145324123410
C            6.80879648373064       -3.05732587336492       -0.19232277818655
C            8.18759187195068       -2.64464770037494       -0.55121116144229
C            9.08792834723938       -2.22167579706140        0.43102541865230
C           10.37137487280563       -1.84117571448191        0.09097444988575
C           10.77756479047383       -1.87738897302050       -1.22798485379512
I           12.71811942585329       -1.30084587904623       -1.73480630049738
C            9.90354978188145       -2.29404623171623       -2.21210783267923
C            8.61812559991108       -2.67555305567185       -1.88066561975622
C            6.47809900752490       -4.41004936515855        0.02063919827113
C            7.29125552868387       -5.57338369914500        0.02380919193696
C            8.74224180018317       -5.65255583776616       -0.27062230502384
C            6.47169281901532       -6.64985252313934        0.36068965698358
C            5.16515170179360       -6.18985915424113        0.57090171061014
C            3.97955270226054       -7.00333744319673        0.89164454440598
N            5.19229244358816       -4.85631025813127        0.35523218859548
B            4.00196680307543       -3.89826127201188        0.19141056042906
O            3.52368050377820       -4.01227511416112       -1.22791444180890
C            2.12943393456126       -4.00024529213394       -1.10863933777351
C            1.78464326702987       -4.50736905624154        0.29643192388760
O            2.88609435918016       -4.24474222542108        1.13289402868081
H            7.70599360548151        0.18336636755575        0.58791376294044
H            6.66755560122751        1.20757597009748       -0.40327819556220
H            7.50383800753122       -0.15945647040709       -1.13287693598113
H            4.29703684278783        0.77551889044878        0.64539804692363
H            1.66286085480250       -1.25064507349822        0.32750784888043
H            2.16598422529523       -0.46989229801354        1.82741256320256
H            2.10590867091848       -2.22802616267136        1.73384640761338
H            8.76601982154728       -2.19900724024680        1.45764471438320
H           11.06699167462663       -1.51358123537278        0.84812983421667
H           10.23704565935352       -2.31710424240361       -3.23811192980056
H            7.93108991912286       -3.00001621891495       -2.64274402968502
H            9.30815413570898       -4.97551988013558        0.36996187560800
H            8.94323039500448       -5.38508373761268       -1.30858997604395
H            9.12094512526768       -6.66192939278784       -0.10554335021946
H            6.78803806477320       -7.67623739694253        0.43199537671000
H            4.26533966118177       -7.95647511664286        1.33780593067664
H            3.39923065273961       -7.20840343224469       -0.00815071615189
H            3.34082699285104       -6.47671237876223        1.60079498408858
H            1.70684719310854       -4.62995755822017       -1.90196018442750
H            1.78899036361099       -2.97143458230989       -1.27297688093887
H            1.60159406755028       -5.58753452093796        0.30229808993272
H            0.89680992717654       -4.01779862300842        0.71513338672230
