70
 energy: -12.654040022096 gnorm: 0.003935152144 xtb: 6.6.1 (8d0f1dd)
C            4.01359941531468       -0.16669259490995       -1.39464657676977
C            3.71725990497569        1.40052383633906        2.28908772156456
C            4.04130692441200        2.24366249209005        1.52532193636363
C            5.39418508480752        3.15003787161614       -2.32695803626158
C            7.03069231601023        0.41386587078967        0.54287706502781
N            6.68799477803703        3.53329012743375       -2.03791280049913
C            6.39804727532327        2.31749546005444       -2.65257407297421
C            6.44646051168896        5.12551011989787        4.10393996262199
C            7.23898023819457        4.51037745529582        3.30950753097361
C            8.48056038475395        3.94022023836022        3.76561422420644
C            9.31821594707813        3.30628001015904        2.91172041193793
C            9.01388901956634        3.17669254209154        1.52933948855606
N            9.87347868556904        2.56298674333086        0.66726119120514
C           11.10972432772503        1.92253563161074        1.12057554333391
C            9.67833318969308        2.57433723497901       -0.78786299591956
C            7.78017672592986        3.71058659150424        1.07623929587056
C            6.93128085384651        4.34640202482131        1.91483026110613
C            8.08230810635490        5.77503417378614       -1.26311682986984
C            8.65677427726689        6.78034071983189       -0.52404651070273
C           10.11015171482939        7.02371635932820       -0.35225462374080
C            7.61759513404453        7.47243026226153        0.09323070292141
C            6.44179748272437        6.82864419316347       -0.32085512667386
C            5.10828710740831        7.14373912679745        0.02581274802857
C            4.73352380004252        8.13171426235259        0.87975909611872
C            3.38266096919610        8.44163345243770        1.22665411699217
C            3.11487454915064        9.49282754916487        2.12219815207445
C            1.83535310741068        9.82077079836514        2.46638848460998
C            0.73436934894449        9.11878175036925        1.93621266199449
N           -0.56155663611930        9.45556605120937        2.27569893800689
C           -0.85907664893812       10.55090160866512        3.20159015859313
C           -1.71525415905495        8.75182729660696        1.71239998466380
C            1.00465282038257        8.06223164342966        1.04427281463937
C            2.28467119420671        7.73435230559962        0.70159605851491
N            6.75513143506974        5.74257559141488       -1.15956440332955
B            5.56698480152686        4.70336178000143       -1.54906848514715
F            4.78833212887158        5.48832630034521       -2.43349865459028
F            4.91983874709497        4.47486342870123       -0.32375069663035
H            3.09857514516469       -0.14915621453333       -1.94341384781729
H            4.70577401088677        0.52045754136738       -1.82850941610215
H            3.83041114499296        0.11196792961998       -0.38064635150011
H            4.34411355010365        2.99985288411737        0.83583032499434
H            6.26671020818855        0.56872730837832        1.27462686877501
H            7.92395632701939        0.91756486691166        0.84864778555807
H            6.71112031360559        0.82634291116928       -0.38939313869201
H            8.73401023558014        4.03486795690513        4.80774216183981
H           10.24347531483128        2.90210573193833        3.28121176073555
H           11.82520071479817        2.67667448500442        1.44345602511864
H           11.56144651908047        1.33552863154770        0.32381691613668
H           10.90221111671633        1.24963171721465        1.95042760868514
H            9.44873059775073        3.58184917594742       -1.12773591182412
H            8.86027967765228        1.91452550924918       -1.06783594265059
H           10.57625621788397        2.24715597666750       -1.30817346996183
H            7.50839602796516        3.58982494266922        0.04249601633643
H            6.00105250893778        4.74090560956577        1.54536891522620
H           10.58398254951775        6.16749231723460        0.12815438142259
H           10.29034482937453        7.90414841612979        0.26474340973646
H           10.59131375887902        7.17869661933292       -1.31769129714616
H            7.70741371825559        8.31340950705912        0.75810368831873
H            4.35671272889668        6.52976125681519       -0.43505919038591
H            5.50528227368386        8.72643234120961        1.33408061285798
H            3.94112870697476       10.04305997455177        2.53825583220641
H            1.66094714629380       10.63072441842434        3.15148745744889
H           -0.47715143747682       11.48840093475903        2.80333283833596
H           -0.39718343764593       10.35815737950105        4.16756506304564
H           -1.93052480400640       10.65805802502955        3.35377849713820
H           -1.68555484433251        7.70201522366346        1.99652339857137
H           -1.70440941688138        8.82866009680347        0.62733093660141
H           -2.64967222039175        9.17592528256490        2.07229695931024
H            0.18534448310553        7.50463369912726        0.62738991330477
H            2.45450143943989        6.92095726695742        0.01977242983963
