51
 energy: -9.488429340844 gnorm: 0.000516018387 xtb: 6.6.1 (8d0f1dd)
C           -3.36760305724257       -2.60647528245246        0.19293669518012
C           -2.70303605958451       -1.28352467920322        0.10940421482391
C           -3.36034960195774       -0.06065916210312        0.09945309337559
C           -2.40858793174731        0.97207803911252        0.04018241659820
C           -2.63437413103624        2.42799130990101        0.05071564298750
N           -1.21188525786886        0.37200948339034        0.01328792957186
C           -1.30605775052949       -1.01504086881252        0.03267278537093
C           -0.17833933246381       -1.87284087737171        0.02064585942423
C           -0.31454147843183       -3.34354254716913        0.02051184970749
C            0.12233830203296       -4.11436777189042        1.11368395303626
C           -0.00352319646627       -5.47293448074387        1.11515291235481
C           -0.57423004694432       -6.15448938534185        0.01889545111129
N           -0.69971158291398       -7.52570673273485        0.01760688207476
C           -0.24754445390263       -8.34543155519270        1.14322633421042
C           -1.29015614208633       -8.24830912546375       -1.11063642886975
C           -1.01033506480740       -5.37868104533231       -1.07645437085123
C           -0.88533397836819       -4.02005402710704       -1.07338214545342
C            1.08758263471601       -1.23648860462973        0.00577372918860
C            2.41182335133024       -1.75636149797889       -0.07062121170351
C            2.82386022634517       -3.17873969927993       -0.14526294109728
C            3.28189373019641       -0.67444441815859       -0.06700761512380
C            2.53521614936976        0.51521651579973       -0.01184906144448
C            3.02538657659071        1.90461615980363       -0.02238791729938
N            1.24898734217015        0.14438951849440        0.01979720815807
B            0.10128271994793        1.15090830199021        0.01422437739846
F            0.17587082260296        1.92849028556476       -1.13855058083070
F            0.17074434614862        1.93546792514354        1.16264438455557
H           -4.37051636818142       -2.51315943155798        0.61074725676863
H           -2.80494019769133       -3.28704031575053        0.83235967063424
H           -3.45824730330977       -3.06053985692567       -0.79402798564488
H           -4.42687488323366        0.07766271551511        0.14785268841283
H           -3.35970254423272        2.71792708852599       -0.70976610433773
H           -1.69873363559323        2.95125770030958       -0.15184232027000
H           -3.00111822384435        2.75707725228998        1.02321607015910
H            0.54935025222158       -3.60672674989711        1.96130810480455
H            0.33474172927378       -6.03632931948040        1.96594233703156
H            0.82106150252062       -8.20840219642472        1.29782996697387
H           -0.43110079776839       -9.40240777506375        0.96239164349663
H           -0.77832763652023       -8.06022426886195        2.04954336811298
H           -2.31590116121165       -7.91987936865541       -1.26742871407496
H           -1.30175772150938       -9.32142241098478       -0.93183480611829
H           -0.71423536727172       -8.06258971574443       -2.01527010727155
H           -1.44600434645240       -5.86960616009870       -1.92784707457815
H           -1.21355508390415       -3.44173126785689       -1.91972942032069
H            2.14189135109517       -3.75165726209278       -0.77392662737604
H            2.83889869685992       -3.63233954908157        0.84593653631027
H            3.82332163545739       -3.27289420103106       -0.57113955528774
H            4.35556951403015       -0.73322888501447       -0.11894320790479
H            3.76878218298759        2.06325194776770        0.75920399604090
H            2.19676822887071        2.59340203012275        0.14937013890449
H            3.47546304230746        2.15100422175696       -0.98429930091973
