45
 energy: -8.592138537694 gnorm: 0.000688020389 xtb: 6.6.1 (8d0f1dd)
C            1.02947063200026        0.09009205138821       -0.02596463636035
C            0.34689538272535        1.15677379125641       -0.68418808640438
C           -0.89719542316347        1.55253929089806       -0.34589491969405
C           -1.64293891284406        2.62094638400640       -0.97215497739734
C           -2.92479783888773        2.93288060703392       -0.50827846347984
C           -3.67703438525141        3.94175961034114       -1.06693155901894
C           -3.15347557622322        4.68789701231794       -2.14311113886965
C           -1.86347376218487        4.38259347488751       -2.62514326169636
C           -1.13689697884378        3.36966701702737       -2.03953320279721
C           -1.27565716107136        5.15184797944848       -3.77376828296004
C           -2.34897039161170        5.78225253664349       -4.67216463808236
C           -3.38255206478591        6.53552710000769       -3.83696051721940
N           -3.90315824759344        5.71565404816891       -2.72396685252801
C           -5.26923638418786        6.04630792812998       -2.26998982314758
C           -5.49476388645746        5.67894256471514       -0.80454590468671
C           -5.04689856200083        4.23718118950678       -0.52583432262751
C            2.27806278610609       -0.29968973403846       -0.34998913630975
C            3.01417308883051       -1.37168849372771        0.28825351456816
C            2.48907547871657       -2.16636035461216        1.30252470503409
C            3.26049286531633       -3.15788417454870        1.85458637755006
N            4.50393767300825       -3.43591551703660        1.49558018717881
C            4.99980727456569       -2.67921932203184        0.52938291358512
C            4.31941338355683       -1.66385242856893       -0.09363436149871
H            0.50958912034161       -0.41366149170777        0.76845145450231
H            0.86410473604935        1.65727465751562       -1.48207289536562
H           -1.38509053112478        1.03331729661279        0.46056446937753
H           -3.33487302749650        2.36648895938757        0.30896655436928
H           -0.15607070778562        3.15537711239693       -2.42148391765084
H           -0.62593652212587        4.48882307260488       -4.35936289013154
H           -0.61908921908832        5.93364065829522       -3.37384730783775
H           -2.85169521908025        4.99495525801352       -5.24747983287893
H           -1.89155542723911        6.44904916758239       -5.41668420035682
H           -4.22567192658686        6.86275805508096       -4.45544324310151
H           -2.94126555427938        7.44063030592979       -3.40778426318908
H           -5.97452221225637        5.50904638041482       -2.91198199137200
H           -5.44514553525934        7.11452884206408       -2.43903227068963
H           -6.54941702904812        5.81894612037282       -0.52851043021383
H           -4.92701037186099        6.36728483042892       -0.16637656751078
H           -5.76006605186162        3.53337501503892       -0.97132118281290
H           -5.06187000841872        4.03264676309355        0.55245049102642
H            2.78031151046020        0.22556725875852       -1.14355102485548
H            1.48433066397232       -2.00772119694138        1.65162303311085
H            2.84549470130562       -3.76908773026313        2.64158581816385
H            6.01335941670667       -2.89700907074452        0.22810730381925
H            4.78840020496088       -1.08815282515014       -0.87332071953863
