56
 energy: -10.333076532392 gnorm: 0.000696393443 xtb: 6.6.1 (8d0f1dd)
C           -3.22985036876734       -2.84040904050118        0.11933210564403
C           -2.63730473732788       -1.48486237595077        0.01889203271079
C           -3.35991799813249       -0.30202270342218       -0.05763002355570
C           -2.46473304540032        0.78018939040528       -0.11525864402478
C           -2.77121236622845        2.22036221656716       -0.16713509552503
N           -1.23671661627314        0.24817204771830       -0.07658692494546
C           -1.25538430270503       -1.14042819325322       -0.01439882368270
C           -0.08303883351486       -1.93392709637422        0.04015813360733
C           -0.13929054275996       -3.40922519507862        0.08144145386367
C            0.28841729627456       -4.12190895259779        1.21569541598557
C            0.23204457807666       -5.48438026660222        1.25745526768665
C           -0.25486292964022       -6.23346953651753        0.16313163853580
N           -0.32167667246564       -7.61442721533858        0.20883049726714
C           -0.69919608388291       -8.46579297889444       -0.93282162132997
C           -2.08478459365114       -9.05520385946422       -0.68730605227217
O           -2.10547959191570       -9.80678908208209        0.52003975895106
C           -1.71760478412859       -9.03113451463241        1.64822979860703
C           -0.33560994090685       -8.40587121824200        1.45577109684212
C           -0.67727745945977       -5.51172125272340       -0.97552197206872
C           -0.62342868100144       -4.14905706163637       -1.01203906622091
C            1.14583769860974       -1.22895869845599        0.05278347718863
C            2.49790856535672       -1.67746630092948        0.04440864680570
C            2.98659376227839       -3.07716940253882        0.03024229729163
C            3.30757063456972       -0.54982232985903        0.04808790572330
C            2.49632326480808        0.59814983337244        0.03690793928168
C            2.90916374372429        2.01128906711400       -0.01984554665568
N            1.23175008016291        0.15829856983715        0.02685257545910
B            0.03140828592780        1.09764496437506       -0.05706579925583
F            0.10714080272366        1.83704404428231       -1.23419529111006
F            0.01461493523695        1.92459524279270        1.06246237153272
H           -4.25552161391879       -2.79124903843444        0.48610230422870
H           -2.66209004032057       -3.46606936244788        0.80835217274359
H           -3.24675194654505       -3.33147514825179       -0.85377600622623
H           -4.43350186417053       -0.22264464979900       -0.05661846261946
H           -3.46085810021881        2.44524510906355       -0.98099684112299
H           -1.85513323665197        2.79096094066844       -0.32803024192909
H           -3.21826069028562        2.55585105584845        0.76880870607683
H            0.65618545080259       -3.56674045318741        2.06133417640378
H            0.59724221670467       -5.99308642408359        2.13007027739774
H            0.03629773692966       -9.27306803593975       -1.00290988129287
H           -0.63704706156748       -7.91974458761284       -1.87757273566177
H           -2.40332991775112       -9.71792470184972       -1.50165097717635
H           -2.83488724117035       -8.26168522192313       -0.59729057873899
H           -1.75180921676581       -9.68687618629043        2.52737627147294
H           -2.47795279318441       -8.25537669914428        1.79207945628227
H            0.42523515748354       -9.18745421317437        1.37321251920272
H           -0.05997860773465       -7.79142296914128        2.31565295784567
H           -1.07982384810111       -6.03845061171693       -1.82053625549508
H           -0.94762380167366       -3.61508847887934       -1.88857653495983
H            2.36991609253237       -3.70076597883179       -0.61711499746958
H            2.97220352001624       -3.50522402360100        1.03271834586243
H            4.01094576213706       -3.12857407311454       -0.34001053392429
H            4.38406585440989       -0.55147716938847        0.04268607233274
H            3.70217864760387        2.21865442421683        0.69857163908898
H            2.06087486463498        2.65701958763511        0.21027319698952
H            3.26739057721749        2.26947880800744       -1.01609160164863
