65
 energy: -11.603247903612 gnorm: 0.000761292290 xtb: 6.6.1 (8d0f1dd)
C           -3.34520839189349       -2.61608543153231        0.35745245583918
C           -2.70997769184628       -1.28032215957596        0.25171316412049
C           -3.39600511685103       -0.06913412019581        0.27990703180674
C           -2.47257099113302        0.98370596541513        0.19729832356341
C           -2.72922010379522        2.43366473678217        0.24367062657165
N           -1.26172256167475        0.41035175290911        0.12031282887828
C           -1.32516997630325       -0.98156514142623        0.12402410068647
C           -0.17838399580322       -1.81405290409075        0.06215825846558
C           -0.28114219909753       -3.28475701431873        0.03473557146110
C            0.25205052484335       -4.07177795460272        1.07502756891484
C            0.15696199798317       -5.42955854614392        1.04841291370960
C           -0.47569033850121       -6.10294182238978       -0.02334356622898
O           -0.52033854255587       -7.46864224547933        0.02933770748662
C           -1.14620707610148       -8.09221622296640       -1.08817953008781
C           -1.15807360557701       -9.60593697006373       -0.95162972920449
N           -1.92710228501705      -10.29397605181697       -2.01980074235263
C           -1.29037113309692      -10.16701582430712       -3.35633700405449
C           -2.16369223085149      -10.79134398773455       -4.44828553132243
C           -2.50494497154197      -12.25155861909912       -4.11026814700361
C           -3.16283871376213      -12.34837542020373       -2.72440936570377
C           -2.27425473727257      -11.70757622435652       -1.65688144307238
C           -1.01136814336652       -5.30986184595757       -1.06646165150929
C           -0.91653426692373       -3.95116741825732       -1.03281663745290
C            1.07275037159556       -1.14669410197902        0.02366997559897
C            2.40291652505373       -1.62932914475162       -0.12193995075232
C            2.84770029803556       -3.03691808706160       -0.26065898948103
C            3.24952891496711       -0.52407375578107       -0.11753369243917
C            2.48048507586642        0.64294969628062        0.00328624521191
C            2.93448431034766        2.04451621113296       -0.00463759982640
N            1.20227173707711        0.23994010681427        0.07110528554066
B            0.03229523951892        1.21985643044424        0.10470982364923
F            0.06416206561644        2.01477156218599       -1.03846154395014
F            0.10882657791351        1.98916231141314        1.26314787270022
H           -4.31366850390682       -2.54784090421975        0.85414119145083
H           -2.72556160489633       -3.30062594137861        0.93714206777763
H           -3.50586369408858       -3.05118944505089       -0.62919179088179
H           -4.46220132749633        0.04464786773603        0.37560902069320
H           -3.51260407732917        2.71652212396652       -0.45973189090561
H           -1.82199217826411        2.98125875561937       -0.01558597261094
H           -3.03373899111565        2.74161723874559        1.24406227483447
H            0.72566440766575       -3.57570511253845        1.90446832966671
H            0.56320795811703       -6.02411174359373        1.84692841331172
H           -0.60504446742135       -7.78501386066307       -1.98861934127253
H           -2.17208886759129       -7.71564988419500       -1.16259786448058
H           -1.60073775766484       -9.86666011819407        0.01331008722993
H           -0.13747153954144       -9.99622255875146       -0.93247532108875
H           -0.31295210282625      -10.65712286781701       -3.31997844321351
H           -1.10257858118689       -9.10964868865886       -3.56568224757700
H           -1.67013911444796      -10.72117496291870       -5.42725086264360
H           -3.09069756356598      -10.21298245651735       -4.54143682762611
H           -1.58710598865867      -12.85205225404771       -4.12072521797577
H           -3.15260954614330      -12.69039641049514       -4.88202041906124
H           -3.38691105204912      -13.39284965788907       -2.46811982213540
H           -4.13061381409519      -11.83307245265605       -2.74359317334830
H           -1.34323057214691      -12.27026950998774       -1.54243409273601
H           -2.76481533311950      -11.70903845329297       -0.67782703556721
H           -1.49908567276579       -5.78369038457365       -1.89822678411796
H           -1.31739020850885       -3.35952783457230       -1.83775075721184
H            2.15275034392869       -3.60881609684994       -0.87601013539249
H            2.92138113978467       -3.52090683581875        0.71342429985287
H            3.82853403622387       -3.09032156214099       -0.73433357001238
H            4.32135308503793       -0.55575224411224       -0.21277613938354
H            3.76544677387076        2.19222607921453        0.68541241182687
H            2.11817466568676        2.70263439251660        0.29637150703611
H            3.25526358265126        2.34221802384441       -1.00304652419725
