47
 energy: -9.315894465729 gnorm: 0.000841815433 xtb: 6.6.1 (8d0f1dd)
C           -3.41342101846001       -2.52915762570019        0.43200781673660
C           -2.72463300983476       -1.24162564150927        0.17361846854188
C           -3.36258105369715       -0.00644963470729        0.08305215601053
C           -2.39812959957004        0.99840345072878       -0.07410248488956
C           -2.59524902562966        2.45589218944688       -0.15304298262868
N           -1.20888164863368        0.37531011785251       -0.07482102189453
C           -1.32707778707421       -1.01009080898844        0.03979825933183
C           -0.21176051561036       -1.88352988791769        0.06968755849066
C           -0.36412500614206       -3.34448007547199        0.02096310383699
C           -1.14691074872529       -3.92310529550979       -0.99663126565068
C           -1.29788121645264       -5.26487152478663       -1.06078093311767
C           -0.65333500753296       -6.06471827864699       -0.09967754008322
C           -0.74938789745266       -7.45822663281210       -0.10387108021676
C           -0.08027930839128       -8.15806621249831        0.85478004994840
C            0.66646419707072       -7.46669484177776        1.78945713254935
N            0.79008928435015       -6.15894936783242        1.83770251390206
C            0.12992107859883       -5.43437478225207        0.89802397045009
N            0.25993290515358       -4.08488460593590        0.94347323295339
C            1.06216720731839       -1.26741662621687        0.11288546132414
C            2.38037244769173       -1.79833129300151        0.16079753055927
C            2.77612438388984       -3.22514701075965        0.21412707330591
C            3.26543301804695       -0.72236388221798        0.14876892447863
C            2.53533078385721        0.47239921928528        0.08325523562364
C            3.03975947941905        1.85263883228153       -0.01851729906261
N            1.24144594545787        0.11546391799787        0.05150421525658
B            0.11558726112601        1.12936400459439       -0.12595129753345
F            0.24408009062948        1.74881601222673       -1.36477499127761
F            0.15965737306585        2.05507514152622        0.91154666801349
H           -4.32254521587901       -2.37299146619285        1.01331736041404
H           -2.77444357965354       -3.20771870752296        0.99774608818685
H           -3.69366580219703       -3.01829435927581       -0.50097238681009
H           -4.42411962264253        0.15613614419616        0.15594293024998
H           -3.37309149415504        2.70898462511271       -0.87382801849188
H           -1.66837133854638        2.94055332654832       -0.46391672143914
H           -2.87582973697486        2.86206542338934        0.81897556708113
H           -1.60447074360440       -3.28209803620860       -1.73005783815059
H           -1.88924294868949       -5.72455350375977       -1.83337814768562
H           -1.33922856575203       -7.95706962420469       -0.85320325812521
H           -0.13048628240461       -9.23401372853525        0.88303313335546
H            1.19728854008786       -8.02039698072019        2.54815770218531
H            2.29533739077724       -3.79030171146007       -0.58464777587633
H            2.47940640849106       -3.67142938025266        1.16393848447730
H            3.85481561877709       -3.34069324179024        0.10660717886086
H            4.33924172513702       -0.79445228177261        0.16731639148440
H            3.92239757719305        1.99718345676141        0.60520211809439
H            2.27153777348201        2.55646504196709        0.30529616999984
H            3.29974768408448        2.09303614632135       -1.04976745277063
