50
 energy: -9.692906092108 gnorm: 0.000905658734 xtb: 6.6.1 (8d0f1dd)
C           -3.34465761191748       -2.64696730948626        0.01817808278247
C           -2.71365962743073       -1.30590465858976        0.03707922211805
C           -3.39297554620299       -0.09676690824806        0.07262138636212
C           -2.46026499882460        0.95833014067080        0.08844967975877
C           -2.71196262216618        2.40647789517047        0.18669454757390
N           -1.25075151749067        0.38597529256079        0.06796851633172
C           -1.31776925790777       -1.00818872118264        0.01975367422216
C           -0.18557844780183       -1.83877862571398       -0.00585929911295
C           -0.30738877039702       -3.31504978503961       -0.05040476800140
C           -0.05841844301621       -4.08933181821659        1.08637628814281
C           -0.16995180381961       -5.45967603699786        1.04108786229012
C           -0.53096851712561       -6.08746961047245       -0.13497083391239
C           -0.78051351039256       -5.33997231515124       -1.26914129882711
C           -0.67066374208326       -3.96927323749358       -1.23100955689087
C            1.07498764101114       -1.19038018195316        0.02983321001006
C            2.38439520227859       -1.69636352711708       -0.00532154827852
C            2.76118040579540       -3.12313773765426       -0.13964482358045
C            3.27939684058039       -0.59238806081037        0.09486807838775
C            4.71324564055335       -0.66332343952472        0.15783891910639
C            5.59981165046528        0.38498827686760       -0.00252918103498
C            6.95375448608027        0.02098686461853        0.12471773657736
C            7.13895921976216       -1.30123349201333        0.38603048882364
S            5.63239709480242       -2.12038501396759        0.47233994447340
C            2.48421527846139        0.59910495964401        0.15323221716987
C            2.89416553477273        2.00968964525307        0.26939705595318
N            1.21770694896360        0.20324702534682        0.10823881291216
B            0.04765904358904        1.18415009177608        0.14576497371854
F            0.12879837640196        2.03925622669576       -0.94927527237406
F            0.07912574045198        1.88868933227599        1.34594159788871
H           -4.39443679488679       -2.58944023397600        0.30713524712907
H           -2.84585735024684       -3.32313603297338        0.71267297755903
H           -3.29558697155827       -3.08595040624852       -0.97841731847130
H           -4.46285240119018        0.01858502769032        0.09897573099914
H           -3.65259748273242        2.67841641649016       -0.29207195152030
H           -1.90633799810922        2.95929818750008       -0.29768167616431
H           -2.75026341055088        2.71930003682790        1.23001280528620
H            0.22089087671412       -3.59402268940002        2.00021958254686
H            0.02496446130173       -6.04438503419647        1.92499992766729
H           -0.61734765467189       -7.16113566639771       -0.16782309922462
H           -1.06027604434163       -5.83134815543167       -2.18646068700789
H           -0.85705458274529       -3.38171094397666       -2.11334148895797
H            2.02512999766921       -3.67249632526403       -0.72549859366747
H            2.84442226444694       -3.59786124823664        0.83813401683931
H            3.71754801829452       -3.22787491624945       -0.65109211043631
H            5.29267651834636        1.39028067961801       -0.23683523967391
H            7.76686924381793        0.72608982811281        0.02691340965853
H            8.08784003801119       -1.78473834496032        0.52200390034992
H            3.34122056200129        2.36572358095899       -0.65873518462406
H            3.60309697192962        2.14918889241478        1.08561234160015
H            2.02200705110639        2.63199207645012        0.47453169752234
