62
 energy: -12.003072118978 gnorm: 0.000480774704 xtb: 6.6.1 (8d0f1dd)
C            7.06134141507289       -0.07043264032153        0.23581051274773
C            5.86116666257413        0.60157247059573        0.78899107912953
C            4.59560587289655        0.58466302429131        0.22874849932475
C            3.72182771718359        1.33547493350896        1.04166792841069
C            2.28359296374215        1.59101339439481        0.84859306539292
N            4.45915951131509        1.78910863097501        2.05888096602098
C            5.78849023761977        1.39402623012831        1.97373305642011
C            6.76731560520083        1.75043252024385        2.92268142027777
C            8.17190958766932        1.28881728700566        2.81088242850716
C            8.63519861653809        0.22183294118338        3.58547613409789
C            9.93823170486701       -0.20721767066689        3.48288318391129
C           10.80612055256833        0.41623906794162        2.60798863805637
C           10.36711557539533        1.47278530024190        1.83419647559969
C            9.06521947764400        1.90707844684275        1.93204165763828
C            6.32962001251404        2.54188054477004        4.00473174081180
C            7.04316338344650        3.09712893782552        5.12626681101533
C            8.49267844850154        2.96843521102267        5.40891160653252
C            6.13230544512143        3.75837050493951        5.91211183271160
C            4.84178917417183        3.65425451214371        5.31316014598273
C            3.58878383680384        4.12501529553038        5.76435838249327
C            3.39916869556780        4.84436886276208        6.90010570219818
C            2.13029216389822        5.25948965479025        7.40965533756922
C            2.06844845193257        6.02006337626212        8.59235151379116
C            0.87249210588743        6.40113238518160        9.12787937748843
C           -0.34783250960455        6.04201763596381        8.51788403090182
N           -1.55778895132840        6.39996149924739        9.07307485048605
C           -1.64097408444153        7.18770809787453       10.30455603680735
C           -2.83247382320530        5.98949107813418        8.48106959485673
C           -0.28309203559599        5.29042416116247        7.32556157422551
C            0.91438223566296        4.91319096435615        6.78983837764298
N            5.02445947389830        2.93220932418071        4.17790761645603
B            3.89099528488366        2.63441437624167        3.19762181745323
F            3.40230084938582        3.83153162833335        2.68053191010800
F            2.88852133250368        1.92085663048017        3.84907978287365
H            7.75169154146806        0.65722999755143       -0.19155199743340
H            6.78828712770714       -0.77536807819034       -0.55009095862074
H            7.58979927316723       -0.62526688584863        1.01151803061968
H            4.31786926794067        0.07746144314162       -0.67931581350613
H            1.71795383158162        0.65911999070577        0.84874919271380
H            2.10224333008881        2.10655243541595       -0.09472857138549
H            1.90507626159047        2.21839736381024        1.65687102339417
H            7.95296155365481       -0.26144445981233        4.26344150176499
H           10.28179942181887       -1.03154671494010        4.08610452636340
H           11.82634531809889        0.07803329348722        2.52935711237371
H           11.04586324314779        1.95858350552192        1.15254977138091
H            8.71785665456366        2.73212312795887        1.33442540704425
H            9.08288040402154        3.15477128141945        4.51133414300851
H            8.73068776051224        1.96775033434862        5.77043172992690
H            8.80863761440959        3.68390084657928        6.16878894845564
H            6.35691207327683        4.26285852262332        6.83539856513425
H            2.74654841355875        3.85902875466364        5.15343366756028
H            4.26686920907131        5.11032998763532        7.47691184544276
H            2.98800304599028        6.29742791837878        9.07867705865988
H            0.85661546945193        6.97791486484006       10.03508434401683
H           -1.13165710567515        8.14042037784795       10.17264408187322
H           -1.17614975350168        6.64565729121003       11.12593296703889
H           -2.67483130345954        7.39210463162269       10.57459912391606
H           -2.88166246120762        4.90398968751691        8.41856496918511
H           -2.93198306486693        6.40886708530500        7.48177764604708
H           -3.67484472695148        6.33154690256014        9.07854980778471
H           -1.19650934914735        5.00798677238735        6.83370355007844
H            0.92756195940740        4.33203110470330        5.88543523921190
