64
 energy: -11.917420797104 gnorm: 0.000605514363 xtb: 6.6.1 (8d0f1dd)
C           -3.30610533542918       -2.68848924463124       -0.29292360712329
C           -2.77157154674615       -1.31344477310046       -0.16050124156295
C           -3.50105316679445       -0.14704189638866       -0.07854730110212
C           -2.61409599001677        0.95529068763663        0.03928544168115
C           -2.94236910352874        2.38799331811973        0.13589265575488
N           -1.38436352308074        0.44996096293586        0.02074474009135
C           -1.38482462917591       -0.95070886803990       -0.09875699330605
C           -0.24354012413588       -1.70844018861194       -0.14329576372942
C            0.98844347339712       -1.04978091728891       -0.06255040392086
C            2.29123766056657       -1.53881959166900       -0.07205593682077
C            2.66804491232701       -2.97077737172189       -0.10199857664706
C            3.17308046419986       -0.41323279454230        0.05660331702728
C            4.61777690132006       -0.44884494667953        0.08577097511964
C            5.47488232954738       -1.17311304575579       -0.80977594545370
C            5.06912599929080       -1.95023817311959       -2.00327989823975
C            6.78721181712915       -0.93488702269495       -0.41289349655077
C            8.00406229868291       -1.38078105809464       -0.94072991953767
C            9.16107009540099       -0.97199042488481       -0.32995034463950
C           10.53937957440561       -1.24967233542014       -0.61683805637758
C           11.04872965915555       -2.07577768710435       -1.73580949334917
C           11.29341823215301       -0.57222558827109        0.31669387376388
C           10.43049668001473        0.12813403209825        1.20025646705031
C           10.78930726124688        0.96050880696953        2.36144166255934
N            9.19062358778282       -0.13010070423304        0.79554897920009
B            7.93398495158580        0.42329447032870        1.46996164275790
F            7.96751311584166        1.81322921781650        1.42684334651791
F            7.87559094403007       -0.04466007816985        2.77855185607833
N            6.70608343602224       -0.07292048344133        0.70500398912861
C            5.46423014415167        0.23780420774550        1.02995150810832
C            5.09192736927895        1.06399400567452        2.19106674531624
C            2.35144145606103        0.76804109264947        0.15097954121435
C            2.75268439383161        2.18292587500682        0.23229722244177
N            1.09984502829387        0.35299644440662        0.07606680915393
B           -0.10874988571864        1.28972378635036        0.11206792639217
F           -0.05105905558505        2.15047829170192       -0.97904521018785
F           -0.10830801505511        1.98963517861722        1.31413318966904
H           -4.39635624659723       -2.68610060917929       -0.30741309781329
H           -2.98258339910878       -3.31194403134109        0.54104257842951
H           -2.95888093230419       -3.15191504977303       -1.21678848420039
H           -4.57494783052218       -0.07889135685427       -0.09907931273207
H           -3.67942982845055        2.56933004254216        0.91817894920895
H           -3.33976580842834        2.75968933219002       -0.80852365222440
H           -2.04469162532291        2.96076044864304        0.37321549901385
H           -0.29233668046467       -2.77636687412581       -0.24043289440021
H            2.07280290002698       -3.54202381740195        0.61070675852259
H            3.71620940974149       -3.10731801823008        0.16411977630815
H            2.50631046475956       -3.39732739398911       -1.09210067716706
H            4.01995882721444       -1.77987947765346       -2.24497595470569
H            5.21610755085358       -3.01859804078907       -1.84316369641054
H            5.65741625662020       -1.65672224041748       -2.87309277729726
H            8.02907974045877       -2.02683460443800       -1.79756952833700
H           10.47585791979051       -2.99851014942438       -1.83036072027008
H           12.09353818113157       -2.34562066517473       -1.58054806399652
H           10.97722211572462       -1.53498601334060       -2.67969913650160
H           12.36838308146432       -0.57127775050985        0.36932442802976
H           11.54472713867363        1.69947436286919        2.09518921932297
H           11.17564018552000        0.34671128448206        3.17482596207885
H            9.90851861200282        1.48918641200976        2.72787581952311
H            5.76758254079313        0.86157961247290        3.02305827541697
H            4.07413672536218        0.85251971855937        2.51938206062194
H            5.17364722099639        2.12442696942413        1.95293058780069
H            3.77065420400359        2.32864853162667       -0.12952384493474
H            2.68649296060666        2.54481526330731        1.25824978558499
H            2.08405490500614        2.79434093032456       -0.37499755935569
