49
 energy: -10.561127447991 gnorm: 0.000343222872 xtb: 6.6.1 (8d0f1dd)
C            1.38325376175251       -0.52962684213186        0.35172509588098
C            0.74403594524290        0.74503936704124        0.44642758866783
C           -0.59328043930313        0.89990160622021        0.41298242248007
C           -1.29812595763576        2.16593784929483        0.44630596901688
C           -2.68103784957910        2.18939767347052        0.23556852324694
C           -3.37276656137706        3.37451163737587        0.20694002988431
C           -2.71448488858280        4.58650240404200        0.39412750983185
N           -3.42982832953877        5.82672134456951        0.30020198672175
C           -3.36742587356242        6.90881103632783        1.20519167580635
C           -2.67998495814529        7.05549766279555        2.40901164670949
C           -2.81619926404060        8.22948861071876        3.10918749375973
C           -3.62820765222323        9.26225586651313        2.63363558737822
C           -4.31818300231849        9.13170905244358        1.45210964534158
C           -4.19086133313908        7.94430640923329        0.73137417472539
C           -4.77773759082878        7.49396728358566       -0.50956754890056
C           -5.64643960982007        8.10464915929648       -1.41427170628276
C           -6.01280248288182        7.41418368443913       -2.54501763559841
C           -5.52578595841969        6.12804586532964       -2.79085861592360
C           -4.67208708155026        5.51382640169132       -1.90757159965277
C           -4.29795540944778        6.19589898342836       -0.75064222172561
C           -1.34283226004215        4.57100242347750        0.63129469156937
C           -0.64700972578775        3.38701126568792        0.65495710732921
C            2.72064131156250       -0.68317508018200        0.32806700815607
C            3.41922374965836       -1.94620991172895        0.19595366725777
C            2.77439476949039       -3.17423296165274        0.09495580296286
C            3.51705682377975       -4.32040219529200       -0.03909452315597
N            4.83911576480620       -4.36285989479451       -0.08274036397822
C            5.44902674913164       -3.19247152657169        0.01434810828604
C            4.80834259238320       -1.98716575569012        0.15151005864418
H            0.75119110682475       -1.39555212997407        0.27664888239767
H            1.37595158092994        1.61150032720210        0.51534622198750
H           -1.19791136953211        0.01471845230797        0.31875527124607
H           -3.20169828472821        1.25992859362081        0.08082203636099
H           -4.43643745945573        3.38250741421475        0.04473324951674
H           -2.06636594420954        6.25223854634267        2.77540569959515
H           -2.29110357806026        8.35599390148858        4.04172169572627
H           -3.71673254533940       10.17261005110494        3.20342129777744
H           -4.94893779043986        9.91985688574666        1.08042247544199
H           -6.01025336517000        9.09838758091080       -1.22138042734883
H           -6.68066168293122        7.87262835116569       -3.25563583676654
H           -5.82238299143407        5.61190210279770       -3.68919668571041
H           -4.28214519959943        4.53024352947871       -2.09832640421988
H           -0.83102635293014        5.50762353490665        0.76725139511575
H            0.41320016583112        3.40158995917181        0.83311457814406
H            3.33030829139042        0.20072221931529        0.39721651977861
H            1.70080896922807       -3.22829115252824        0.12085847306897
H            3.00963467723646       -5.26995296825171       -0.11780511819565
H            6.52766049210239       -3.21441832186831       -0.02129954162632
H            5.37104604070690       -1.07210829609068        0.22157463924400
