33
 energy: -6.043527302838 gnorm: 0.000588593213 xtb: 6.6.1 (8d0f1dd)
C           -3.33257099142001       -2.57032286438005       -0.00490418865467
C           -2.71063464243076       -1.22626118248352        0.01235496300296
C           -3.37155468972594       -0.00081704687517        0.02987251674807
C           -2.42272895604840        1.03842218860551        0.04355563666001
C           -2.64132654667246        2.49531032944826        0.06449742831957
N           -1.21718329964776        0.44647365016124        0.03364330226448
C           -1.31442435224223       -0.95132945090572        0.01555970407831
C           -0.21443161658301       -1.79162746767057        0.01093421285716
C            1.04408220356261       -1.21448170760780        0.01984498544629
C            2.35104188641271       -1.78209951925382        0.02167363636941
C            2.69621362336718       -3.22279060835700        0.01711724397346
C            3.25776386149038       -0.72661743440126        0.03287724244570
C            2.55371252907067        0.49167312814650        0.03838143011064
C            3.07864884593926        1.86815677170011        0.05016124932710
N            1.24977303792821        0.17194826930864        0.03112508760275
B            0.11520645709998        1.19838900029299        0.03992273892791
F            0.20136261433984        1.98502625080316       -1.10439550881756
F            0.20166097761785        1.96530658431444        1.19755220219578
H           -4.42061924783036       -2.49947556572390       -0.00233491174075
H           -3.03136041017997       -3.14802873788978        0.86946655726869
H           -3.03394781883796       -3.12404818996427       -0.89553845446065
H           -4.43945861802971        0.13258223349347        0.03313102945641
H           -3.70380262023461        2.73953254051339        0.07383161366722
H           -2.18610550482728        2.95772284078572       -0.81187521712801
H           -2.17638868907704        2.93368343452127        0.94811732467018
H           -0.33708103772390       -2.85783937481011        0.00174749998890
H            1.80115266430877       -3.84467920960001        0.00576070807599
H            3.27465631706625       -3.48482235166715        0.90351347956015
H            3.29076858511401       -3.47554375589053       -0.86126254251893
H            4.32937031888337       -0.82608766986780        0.03731748833236
H            4.16870111342362        1.88002190609224        0.05815179911683
H            2.71875649548991        2.40124916923039        0.93073676593587
H            2.73163751039673        2.41149383993112       -0.82931702308165
