47
 energy: -8.484765524851 gnorm: 0.000822110072 xtb: 6.6.1 (8d0f1dd)
C            2.01476669888019        1.59409904106164        1.42813612011014
C            2.77725189132221        0.54831067065665       -1.92032639048163
C            1.83646232359053       -0.52413733749681       -1.84599629673630
C            3.40743208082243       -0.89487354642787       -2.13526450713153
C            4.98247806101918       -0.89117879925998        1.02609255044647
N            4.89770647369083       -1.02266726005009       -2.53067480670908
C            6.26925980063666       -0.89267225808766       -2.29595873756201
C            7.08638082445857       -1.28657530569596       -3.24142958038439
C            6.55815894644723       -1.86167481360271       -4.43940172876758
C            7.34022944765271       -2.36683387886910       -5.50004121005218
C            8.72716623471138       -2.42764886547048       -5.75206213758480
C            9.15222295905834       -2.95576385889252       -6.93511208774527
C            8.23414344026355       -3.42614771607654       -7.89960284648654
C            6.89021137009581       -3.38504924521406       -7.67734861498688
C            6.41976329405999       -2.86735554104854       -6.44912886793012
C            5.13847699640291       -2.65528747000806       -5.89598428994458
C            3.88208510855130       -3.05593894694400       -6.52819726533664
N            2.74452385278096       -2.28556843817348       -6.50235068298432
C            1.72223587420615       -2.93317208205224       -7.14393792150482
C            0.33246757081394       -2.44515312191376       -7.25039476611655
C            2.21789701422677       -4.13607334763831       -7.59552717504565
C            3.56365337593737       -4.23497938971804       -7.20980883803642
C            4.41801625636811       -5.43324522561872       -7.39836050314333
N            5.20539662634246       -2.00629226280941       -4.67882312008985
B            3.92320086788802       -1.46377768743915       -3.81418543979602
F            3.09590591847261       -2.60885481539245       -3.80359161963517
F            3.41348809832642       -0.40839132357228       -4.58697623927113
H            1.43672298143733        2.49186520338373        1.41477249286212
H            1.46300637850879        0.81966150612360        1.91423859197666
H            2.24183931681398        1.29798337544432        0.42742485947339
H            0.76755572881915       -0.43899926498141       -1.66758132324276
H            4.07443511057905       -0.44079941299258        1.36079625832958
H            4.98103197846633       -0.93726096317186       -0.04053330067242
H            5.81383726236249       -0.30803273820277        1.35711836157478
H            8.14945713679754       -1.20127529022999       -3.10892259412121
H            9.42251334909424       -2.05379986115208       -5.02212726713502
H           10.20743893215949       -3.00539199520788       -7.14640443939217
H            8.60689395534937       -3.81652722615619       -8.83192947594522
H            6.19031028267957       -3.70608720456956       -8.42696147600309
H            2.68321404524071       -1.46211643753544       -5.90702640383909
H            0.27460503329693       -1.39008189774317       -6.98283527082489
H           -0.32329070966588       -2.99919594374041       -6.57868191615874
H           -0.04421397302637       -2.55773879925690       -8.26710561638613
H            1.65355079032602       -4.89496486447559       -8.11006219447526
H            4.71977725415380       -5.53971514621944       -8.44042366010126
H            3.87942849210311       -6.33714628466950       -7.11271611013851
H            5.31567524901703       -5.37816392684949       -6.78246251560030
