42
 energy: -8.697644672223 gnorm: 0.000936075020 xtb: 6.6.1 (8d0f1dd)
C            6.33560350773533        0.13830192629565       -0.43141056613943
C            5.30087125759639        0.82152893095265        0.37985140835488
C            4.07674533092988        0.30275595478784        0.76987153942390
C            3.37191898525055        1.28187910789329        1.50459324270195
C            2.03233486268824        1.18764249094792        2.10998742762463
N            4.16090345056691        2.36046040093524        1.54158568803257
C            5.36584966525728        2.15856099339437        0.87043786697850
C            6.34668924042275        3.13302918038460        0.76842168446888
C            6.10928741777272        4.35473466030915        1.35926450230835
C            6.93127300517039        5.54973133205364        1.42434404814463
C            8.19544471601003        5.84557605361894        0.93186251537621
C            8.71901705263410        7.10122045864144        1.16601825595420
C            8.00165553669548        8.05613084817016        1.87998875252241
C            6.74604768433808        7.77759088923080        2.37735314701824
C            6.20320030749399        6.51636095659855        2.15142966265125
C            4.93522672584479        5.93301054954082        2.54236868007657
C            3.91256067386171        6.47725082887493        3.26148556343144
C            2.96317162737639        6.92038141723044        3.91994680113696
C            1.89216859413053        7.36333666234466        4.65187819370862
C            0.87748749405495        6.59110651201728        5.16136951269308
C           -0.09369275594600        7.32554481836934        5.87617963738774
C            0.16265447204467        8.65896567812118        5.92229681883910
S            1.61692368670002        9.03242909195228        5.07988809165402
N            4.95138304626409        4.67143153762458        2.04691989106183
B            3.79790471788516        3.67848407037142        2.23047888663586
F            2.64852474935447        4.18773794696984        1.63461882534153
F            3.60627521565352        3.43405350397338        3.58652233000349
H            7.32578812770266        0.27919412877562        0.00294382998183
H            6.35286783702702        0.53242857478450       -1.44803853215387
H            6.14396434678227       -0.93354498352849       -0.48860664215005
H            3.71464823832300       -0.68543918554896        0.54422491862387
H            1.26883203747131        1.04489025977548        1.34512142138715
H            1.80293201094429        2.10711181895693        2.65067521501687
H            1.97837925412997        0.35662501311901        2.81347489929290
H            7.26366443614444        2.94138702311706        0.24414197775901
H            8.74549574152640        5.10308665692706        0.38152329776041
H            9.69884555605614        7.34552767078233        0.79036596075491
H            8.43429038591596        9.02862825417900        2.04731400502450
H            6.18538423839492        8.50979251085700        2.93089821580326
H            0.83818315217910        5.52134985774090        5.01939783789872
H           -0.95664641787756        6.86854079004864        6.33856796039457
H           -0.44712921250218        9.39490480850932        6.41131322723135
