42
 energy: -8.321414877602 gnorm: 0.000723212052 xtb: 6.6.1 (8d0f1dd)
C            0.76493299445828       -0.43303750605276        0.08396782875677
C            2.19913883510790       -0.46456486428898        0.09546270374646
C            2.96199534866946       -1.56131206731463        0.18309720028409
C            4.36022794775596       -1.38983537410364        0.17916228977713
C            5.02835272757352       -0.07163193088459        0.08045898657572
N            5.07813585086160       -2.52554033457957        0.26445252086997
C            6.43915929850783       -2.50827985143160        0.26774636981660
C            7.23604626987243       -3.59035594405457        0.34683745149327
C            6.67359761092761       -4.84094285007818        0.43467349683193
C            7.28135426049211       -6.15603967702855        0.53019613233171
C            8.60310633216876       -6.58033867710324        0.56368638618403
C            8.86090088372660       -7.93302793704446        0.66056430850278
C            7.82368303702659       -8.85835274390770        0.72380709483802
C            6.50611844976262       -8.45297604645194        0.69139092024413
C            6.22822511212486       -7.09286064074463        0.59360574887033
C            4.97203939790589       -6.37080738630450        0.53949987176008
C            3.70436192468215       -6.87368202586323        0.57299945440461
C            2.56280424744095       -7.34829373329789        0.60467267025027
C            1.27702648510371       -7.88032561001001        0.64363663024197
C            1.08729701386465       -9.27186490704830        0.73971834943102
C           -0.25176923829157       -9.64582909871594        0.77020304796437
S           -1.09915220092405       -8.24612842889915        0.67739708037585
C            0.07178296046658       -7.01967246611451        0.58696217824168
N            5.31359356665547       -5.06001647427074        0.44765473399242
B            4.33880145962758       -3.88157097335121        0.35861981142591
F            3.55486851125888       -3.88401864972091        1.50778113176942
F            3.56460391367111       -4.04918662325442       -0.78482379104022
H            0.39887263158823        0.59195512618332        0.00789144159672
H            0.35777745265437       -0.86878941220640        0.99776856676842
H            0.36909174355118       -0.99557807494604       -0.76311015649981
H            2.52796112738824       -2.53903180053503        0.25451154315388
H            4.30751780480271        0.74558498394455        0.06312980809788
H            5.62531430604769       -0.01274371850004       -0.82966886730793
H            5.69240448469150        0.08524607525566        0.93051048947842
H            8.30460298464428       -3.47623880204704        0.34210952767708
H            9.40057066478328       -5.86045454686435        0.51435418351879
H            9.88133161069023       -8.27768798788952        0.68756448382784
H            8.05344835329386       -9.90830697680510        0.79939021707871
H            5.69863516811250       -9.16177906026719        0.74003705720190
H            1.90882025125219       -9.97497119068076        0.78537208457466
H           -0.66440287447484      -10.63491964506824        0.83741752414017
H            2.02110129206219       -4.81336214666269        0.42455148761170
