27
 energy: -5.127374977161 gnorm: 0.000677657683 xtb: 6.6.1 (8d0f1dd)
C            3.51195461320381        0.66521694584526       -2.21264901001032
C            3.86597646822809       -0.44594289088005       -1.30003497418033
C            3.72687448231925       -0.44164641524886        0.08442433071459
C            4.20195521752422       -1.65882269361891        0.60362288413044
C            4.26770555590310       -2.09652430485168        2.00828762842944
N            4.62362908684360       -2.37764178438856       -0.44986383838095
C            4.45085388379579       -1.69393268613647       -1.66020259939636
C            4.81388041797550       -2.22527205551234       -2.88567606056674
C            5.36936665190461       -3.49291746456151       -2.90451130087550
C            5.82618541827725       -4.29876744512518       -3.97474495185380
C            6.29135420674994       -5.48976620014033       -3.43888761230816
C            6.13651833675903       -5.45132685319229       -2.04626399319582
N            5.59027434106984       -4.26385808720083       -1.75307267682495
B            5.23857804824710       -3.77497180194862       -0.34585681966687
F            6.39765528983907       -3.69757142701482        0.41822583345124
F            4.30546109157508       -4.63488101611390        0.22144331777793
H            4.24854049841919        1.46653825255793       -2.14981490575804
H            2.53723301232826        1.08139007528558       -1.95681900600996
H            3.46907914457594        0.32725784834101       -3.24792579871555
H            3.32316538532613        0.36721378682143        0.66836593672212
H            3.28075027743223       -2.07785327277898        2.47045580305041
H            4.93368267874805       -1.45532975552859        2.58566074127561
H            4.64947950007961       -3.11724876597121        2.06205806770911
H            4.67022201782961       -1.67512027149936       -3.79599131968559
H            5.80861068159392       -4.02671369078693       -5.01626856351671
H            6.70445214418635       -6.31270220511122       -3.99957618869818
H            6.39273154926540       -6.20667582124054       -1.32191492361707
