38
 energy: -7.012975266944 gnorm: 0.000691570338 xtb: 6.6.1 (8d0f1dd)
C            1.15836840151434        0.28625857575775       -0.99151363394580
C            2.49388658603497        0.14032429878387       -0.36813649926565
C            3.15862017651250       -1.05770145311123       -0.40915892387346
C            4.37202062808864       -1.20280443252121        0.26679229911418
C            5.07672643368483       -2.46394901053122        0.37185464094345
C            4.61465019015366       -3.66926676884716       -0.20805653133409
C            5.31846794334625       -4.82389823845229       -0.07538787177712
C            6.53647221298207       -4.85555238530028        0.64699569072052
C            7.28386933849669       -6.02802704635442        0.79925688884175
C            8.47732775276542       -6.04553419297172        1.50596766673951
N            9.21700738951246       -7.22972116223610        1.64418706975109
C            8.77206669642953       -8.48573774230189        1.04125110139061
C           10.46366647874418       -7.26980883174385        2.40778617911444
C            8.93216892357077       -4.83652599052641        2.08187492684383
C            8.22923362350573       -3.68057614938426        1.95225164996930
C            7.01293886599771       -3.65152331321523        1.23300888986407
C            6.26504744104631       -2.48058588595115        1.07788270912222
O            4.92270432458527       -0.14160864006792        0.87966227936215
B            4.47266407127349        1.20145728039529        0.49544204091876
F            5.11458860922295        1.53641302620431       -0.69014791255388
F            4.78808159917654        2.11052545100956        1.49254332899694
O            3.02617486034755        1.20895824695554        0.23813359855179
H            0.48025851165221       -0.49833263857915       -0.65721604468600
H            1.23078251819637        0.24462583524336       -2.07779303888578
H            0.72601105150408        1.24827120264737       -0.71829463743954
H            2.70822201219726       -1.89138264642006       -0.91193590425394
H            3.69399420116193       -3.67165642312148       -0.76252515467048
H            4.95670143349910       -5.73366504349652       -0.52196628666102
H            6.91613970222678       -6.93241392938634        0.35304711228072
H            8.67592926468756       -8.36789019405516       -0.03594726774444
H            7.81002363841149       -8.77786557324303        1.45681427861357
H            9.48206581832309       -9.28710590704190        1.23180556013782
H           10.28239654175844       -6.95759056034663        3.43404037980136
H           11.19753643808807       -6.60543425987659        1.95664761059009
H           10.88076689744626       -8.27387225261826        2.42767596882593
H            9.85603450995307       -4.83456313813859        2.63169414878567
H            8.59195231522503       -2.76979341671583        2.39619819803795
H            6.61346259867922       -1.56108669044148        1.51320548977347
