51
 energy: -10.729859241200 gnorm: 0.000587854083 xtb: 6.6.1 (8d0f1dd)
C            0.91320809670991        0.07609573168602        0.00823640325173
C            0.19354435231574        1.13075752998557        0.64604249973874
C           -1.15240208645279        1.16418904355831        0.71757709821525
C           -1.93749110130644        2.20425617412119        1.34697375567096
C           -3.32462445763663        2.05105428157682        1.45913182267396
C           -4.09781231377870        3.01462820006374        2.05506330893677
C           -3.52469219235227        4.18101353363429        2.56217220741925
N           -4.33083232615261        5.18399613771036        3.18319440780054
C           -5.50758379615865        4.81511332763576        3.91916813884712
C           -6.65466874600554        5.60293561637352        3.86714270359368
C           -7.77741932731113        5.25743729987759        4.58477560467304
C           -7.77618295971185        4.11934751689171        5.36746635516732
C           -6.64601113205617        3.32770398915971        5.43002134906893
C           -5.52187347977745        3.67148711865430        4.71373713277257
C           -3.96958071874868        6.57030926108857        3.08351193539946
C           -4.14811909717666        7.43053738316674        4.16392769138881
C           -3.81327060166378        8.76205862188561        4.06464657260844
C           -3.29414224117833        9.25947370520418        2.88528019210988
C           -3.11187530416787        8.41919775735547        1.80425364033021
C           -3.44661145534379        7.08741097431389        1.90094417987634
C           -2.14356240004568        4.34144273176778        2.44699167993451
C           -1.36656843965334        3.37704278888608        1.85618175742965
C            2.25902924849598        0.02544983346313       -0.04069846017997
C            3.03574125381609       -1.01797053288333       -0.67751399067343
C            2.47067817854043       -2.06539222767254       -1.39801035845041
C            3.28368864730624       -3.01039797154723       -1.97138397128037
N            4.60524431837809       -3.01586623754914       -1.89632382101871
C            5.13948453500873       -2.01789990772522       -1.21034027415564
C            4.42448919840740       -1.01932456208590       -0.59927808726200
H            0.33892002247592       -0.71099617353065       -0.44528258675801
H            0.76732038372580        1.92154743650592        1.09357347216720
H           -1.69770274675113        0.34628578820092        0.27966938557071
H           -3.78339661186313        1.15750908703108        1.07177372226281
H           -5.16384473194931        2.88825747985993        2.12691155143619
H           -6.65062302699107        6.48501395715061        3.25095644036798
H           -8.65848699114555        5.87627948829702        4.53608852804353
H           -8.65540059486891        3.85018652653656        5.92964140414526
H           -6.64316791472704        2.44112004449405        6.04285654509663
H           -4.63366703776959        3.06660948922196        4.76874003549999
H           -4.54735783589828        7.03507920606293        5.08152009285815
H           -3.95671061106795        9.41711954064184        4.90840809794204
H           -3.03266227754000       10.30220093312271        2.80855054635186
H           -2.70953542080352        8.80718045297743        0.88272936475471
H           -3.31935684593750        6.43022887211960        1.05848756445352
H           -1.69200739119945        5.23338500611180        2.84476548934975
H           -0.30504811176519        3.52919028204937        1.77888459422165
H            2.81062614388434        0.81775660331244        0.43440900558314
H            1.40356121153431       -2.13207805736941       -1.51224172737461
H            2.83742145651897       -3.81838696983904       -2.53109334239988
H            6.21669621577796       -2.01205025486922       -1.14136637805822
H            4.92793906405833       -0.23749585668464       -0.05687327940324
