34
 energy: -6.851668994975 gnorm: 0.000835715744 xtb: 6.6.1 (8d0f1dd)
C            1.10095232155207       -0.23142428566370        0.64583732489052
C            2.35769821433794       -0.14528056451873       -0.13308883777450
C            3.14103446786605        0.98489496063308       -0.09865896942298
C            4.27102235159890        1.07446796387570       -0.91380600337673
C            5.09082108783478        2.27078355536118       -1.02522501430381
C            4.79291695003492        3.48928283562905       -0.37611557793616
C            5.60110106767978        4.57278824929262       -0.52030543628143
C            6.76352815447336        4.51019365442809       -1.32167245867950
C            7.62208229605100        5.61082405244911       -1.48976930950227
C            8.73808380642224        5.50938107043590       -2.26997551489802
C            9.04658819170096        4.31091506284493       -2.91475030244538
C            8.23798572765251        3.22264241781088       -2.77624804821362
C            7.07611023080303        3.29203362777978       -1.97908730168160
C            6.21930443325215        2.19520098465339       -1.81167711519344
O            4.63965957291036        0.02453107398823       -1.65716606857946
B            4.11855201292632       -1.29707563940595       -1.27595607530543
O            4.90270518487196       -1.76449893976583       -0.12104034076639
C            5.54038562780234       -2.88695316468696       -0.49590228509623
O            6.30075511253854       -3.55947636386045        0.16253855382725
C            5.16258524186664       -3.20308215630691       -1.91989471308103
O            5.59275449776062       -4.15704737158363       -2.52769937042232
O            4.30574946610470       -2.26389575081721       -2.36021645897298
O            2.70788067096874       -1.20539346755718       -0.86494914927676
H            0.60028175064155        0.73482768711419        0.70449835284751
H            1.30327025406096       -0.58379316743966        1.65740346295450
H            0.42277426821440       -0.94103888352932        0.17190553368660
H            2.84633931643010        1.81118633407654        0.51858907900124
H            3.91216552569094        3.56162461189245        0.23563974209461
H            5.36297292467543        5.49673272981612       -0.02297093563929
H            7.38844583814775        6.53653409406049       -0.99293547780423
H            9.38836888072245        6.36004470945838       -2.38961518796324
H            9.93262213973495        4.24656189639268       -3.52512765475997
H            8.47756112309182        2.29780214713833       -3.27155543407051
H            6.43933128957986        1.26233603600449       -2.30037300785502
