76
 energy: -14.882242097628 gnorm: 0.000413998903 xtb: 6.6.1 (8d0f1dd)
C            2.79636035844172        2.23693241867715       -0.23975391962443
C            4.05170444070031        1.52532240547737       -0.59157380196927
C            4.41603638315219        0.34548835404445       -0.04859065093567
S            6.01810771338525       -0.16051473656802       -0.54856718438289
C            6.02116765299620        0.98220226331793       -1.95558686744867
C            5.29857153369824        0.25189449415259       -3.09373302990171
C            5.10627569832618        2.08250962303451       -1.43959442376023
C            5.37456410053466        3.40945272728324       -1.62850794929331
C            6.68605580988213        3.86021942505980       -1.95758035465321
C            7.71896129424349        2.97464690097045       -2.11622098666000
C            9.13779033816215        3.26021487841254       -2.01639506449629
C            9.69619554716317        4.63785082850142       -2.05362650056818
C            9.87774126272325        2.13806369594764       -1.73156982908735
C           11.33028176309362        2.03912429843247       -1.60411336675409
C           12.19280445124660        2.64082371301918       -2.52752734633594
C           13.55354493641203        2.51011918434712       -2.40976878410040
C           14.11069773702223        1.77183333336935       -1.36573509368877
C           15.54837313890257        1.61433271262180       -1.22224699890366
N           16.12449720125620        1.03103600986656       -0.17548328760173
C           17.45186297259237        1.05709977699136       -0.39616236197450
C           18.42761674559222        0.56649892932539        0.58494087566483
C           19.71010412870188        1.10164800920829        0.68401382347855
C           20.59136306583165        0.64152928943784        1.63563785578604
C           20.20728872538433       -0.35314346580399        2.51160521596631
C           18.93538427777266       -0.88305572368600        2.43764023854862
C           18.05230259256700       -0.42461291582874        1.48666719080621
C           17.71048294700917        1.65382859639935       -1.65228130013041
C           18.98136976367822        1.79775966225063       -2.36897208279889
C           19.24007157522495        2.94489888571117       -3.11530031238400
C           20.42298926933959        3.08166290210847       -3.80561840154539
C           21.36526028757708        2.07388184405421       -3.77156067113921
C           21.11984915617535        0.92469161856035       -3.04814840927013
C           19.93876939969766        0.78421299637841       -2.35634812805992
N           16.49404370727342        2.01829362705714       -2.14522206111085
C           13.25458623388163        1.16431053079688       -0.44866643324055
C           11.89438414040489        1.28629673307542       -0.56991852205705
S            8.82911597910356        0.73066300192476       -1.49268332496424
C            7.46982813507629        1.49937872956779       -2.39634828359718
C            7.74311288428865        1.25633395004118       -3.88575371619719
C            6.77963718499789        5.35866952099881       -1.76842597470296
F            7.46612271194662        5.63373091633373       -0.64626694051603
F            7.34234329971408        5.93302363131539       -2.84484473184112
C            5.30976586314449        5.85205349566774       -1.60715367128352
F            5.22738982740973        6.78095556734129       -0.64848103722298
F            4.86005637860969        6.31037239860040       -2.78269884616493
C            4.51029609804612        4.57639990716416       -1.20481121709487
F            4.33582608184947        4.55455041308877        0.12785868943893
F            3.33447396209693        4.54650470313080       -1.85458062723693
H            2.02148683793226        1.54093158559757        0.08141021211362
H            2.41723522595374        2.79597458801854       -1.09558488286178
H            2.97465179045202        2.95008421637750        0.56585538936740
H            3.81720474803564       -0.21162848997623        0.64492081851644
H            4.32130345025561       -0.09795037611461       -2.76031911784733
H            5.86084147890320       -0.62218141528825       -3.42096044588804
H            5.13291316489141        0.91089277280947       -3.94577341197447
H            9.35380640293351        5.16877445443607       -2.94221729098723
H           10.78461838654398        4.64098441153195       -2.04989327698681
H            9.36650310104023        5.20558863411289       -1.18362282366649
H           11.77416355060305        3.18032392662146       -3.35925318410060
H           14.20353363469050        2.97958661549536       -3.12590913412747
H           20.00109036432260        1.89333588776617        0.01658610025153
H           21.58105368981854        1.06263510753720        1.70027726921160
H           20.89756337011935       -0.71047815474032        3.25781775463664
H           18.63134706651516       -1.65266134584660        3.12772106802633
H           17.05401603218648       -0.82240726658774        1.42941416366898
H           18.50352218622740        3.72900507088001       -3.13702304212077
H           20.61352244371019        3.97685856726559       -4.37420572953613
H           22.29073480425113        2.18267543089858       -4.31257599641564
H           21.85307316901672        0.13545170402163       -3.02644935426476
H           19.73889719853583       -0.11591121529173       -1.80152516157184
H           16.32055906394323        2.42592614315084       -3.06471172350678
H           13.68365567560221        0.59168744160977        0.35485753166734
H           11.24010005616266        0.80707751852295        0.13729116248126
H            8.73727557509911        1.61593666824012       -4.15231316957565
H            7.02680623632185        1.79094332674239       -4.50953671194997
H            7.70803253960307        0.19501413104279       -4.12881840755706
