76
 energy: -8.924498950265 gnorm: 0.054046916324 xtb: 6.6.1 (8d0f1dd)
C            1.98184020719151        0.53032735461485       -0.83060944352502
C            3.38919319998391        0.18588178459652       -0.88166835820776
C            4.35558155876608        0.67805211051233       -0.08432135695860
C            5.79894864101592        0.36080061320627       -0.36345516792725
C            6.15126178190843        0.85508597871970       -1.75861055354649
C            5.97582175983615        2.24282923546331       -2.07801213503210
C            7.22988636074407        0.18988803076972       -2.46350999817873
C            7.11390717511662       -0.62358878322373       -3.45880142480029
C            5.96125391432283       -1.04536406211886       -4.02111956359168
C            5.84788368438636       -1.82225064994630       -5.05495201142364
C            6.86722857701422       -2.35337595502738       -5.76515687369210
C            7.74616502575101       -5.30696149141763        0.17423465519400
C            6.49582610634563       -3.14182679873839       -6.72650177843254
C            7.32691901645462       -3.82729873131154       -7.57570645631852
C            6.96481695841212       -4.76142953518096       -8.44407513902421
C            5.73610366509316       -5.14784878848222       -8.68961640869636
C            5.36425999060812       -6.12990426930173       -9.50615239152303
N            4.05693592357655       -6.47775931392084       -9.85318112167871
C            3.90193786022408       -7.52198571985070      -10.51036852395949
C            2.65361003477004       -7.69386545687037      -10.80627922170923
C            2.24036383709741       -8.85158226656595      -11.51415789674263
C            0.92738052158971       -9.19157364811588      -11.66945001869693
C           -0.27685028821987       -8.63868940236496      -11.35453449980626
C           -0.57663182616101       -7.42190194213416      -10.74140301371795
C            0.30511707078936       -6.55225194389506      -10.23521682000052
C            3.26370293600629       -9.62044890883209      -11.98326470035748
C            8.51811264214584      -11.85064753620185       -9.71547565583050
C            7.80419242730857      -12.20318138702506       -8.65312056954299
C            6.54069350933371      -12.60162402400199       -8.57020959343426
C            5.56174315385011      -12.69982317601449       -9.45260978155200
C            5.41429067493380      -12.29527906935121      -10.73456599385418
C            6.30089548027849      -11.56584289307085      -11.42261299983338
N            5.83285529748344       -5.84302752847285       -4.28965701883961
C            3.14096558541605       -5.76392298218276       -9.47432643206439
C            3.29459236357280       -4.13886805894535       -1.54579770275905
S            2.16618639712411       -3.11529308206640       -1.88630520382728
C           -0.95216997819276       -0.82666883870674       -3.05741713561451
C           -0.87300794658977        0.29501238323809       -3.76716552707985
C            6.01298849983198        3.66147862452502       -7.13408981471128
F           14.18531063350050        1.67685147166830       -3.57473916825767
F            7.45928514854732        0.72682516546689       -5.99908062650824
C            4.68388147811813        1.35345966586888       -4.60163896523755
F            8.72205158887512        3.76881880484907       -4.12519468302338
F            2.20432572287129       -0.35800225026597       -3.51728759644625
C            6.03070778472578       -2.30321615665943       -1.49771980750161
F           11.88553540581570        4.33416089105780        2.69162943444238
F            0.08384654564821       -1.27098341472829       -0.20162347889584
S            3.42508345300012        2.55450431635897       -1.15113011773967
H            1.43666131102355        0.05675641049946       -1.65581157461041
H            1.85681909642537        1.63471984803287       -0.92239046810698
H            1.52232206032527        0.19617859708594        0.10652568313199
H            4.09751703524043        1.30809562922658        0.75168388526993
H            4.96105812104206        2.58024636551882       -1.94695577290744
H            7.89847229076642       -2.67007236037739       -1.15803305856588
H            5.11535100115413       -2.72625027869985        0.07390701333455
H            6.46830678349398        1.85580377952665       -4.73899628028274
H            5.53488514478739        0.83867706532893       -6.19381405715534
H            9.19906404017524        1.48434260576063       -6.01248804686751
H            5.77169073460080       -3.67554216931214       -2.71357764520754
H           10.47753227489388       -9.68047925892470       -9.34929238861754
H            3.35868793633464      -14.72955303863997       -8.53523231741219
H           -1.12876295543089       -9.22018142656780      -11.67089813453511
H           -1.61753695400288       -7.14989194841229      -10.66276743320450
H            0.08012045955515       -5.61401435738849       -9.81272086722117
H            4.20903586085644       -9.29804617022189      -11.82759826725220
H            2.18986944121269       -5.93703860237774       -8.13018237407040
H            4.00633411637781      -16.42046078932773       -3.64707080649250
H            4.49235784597344      -12.57036082448893      -11.22352011449164
H            6.16994035442356      -11.25657369987874      -12.41822329953311
H            4.42273232785002       -8.97962136439240       -9.57305572423252
H            7.67584911414019       -9.89807483174639       -5.97963381541512
H            2.63905657070878       -4.31360763619978      -10.07126893020306
H            2.43084982048056       -2.03184923910262       -2.62305835042656
H            3.37698105832174        0.06556049420100       -4.92824003015801
H            3.25229494821141        1.37400240050244       -3.39457353900442
H           -0.52030940539055       -2.98095356664583        0.36927537409289
