36
 energy: -7.092241753591 gnorm: 0.000558952482 xtb: 6.6.1 (8d0f1dd)
C           -2.26854893036267       -0.60872073398575       -1.52967759577762
C           -1.08646106623760       -0.44940504677478       -0.65962548837577
N           -0.24294474857528       -1.40446897918150       -0.39110396271954
C            0.72444476930112       -0.89166145351157        0.44793299908638
C            1.78766093482852       -1.54690123651819        0.98535279471386
C            2.09957295741173       -2.93433286692944        0.76659921981315
C            1.31449611434363       -3.73965454854467       -0.05877824642777
C            1.61516510598703       -5.07362368246915       -0.26329271120096
C            0.80476826547544       -5.85750941028979       -1.09985096694471
N            0.13321552335883       -6.50444281923117       -1.79181136703917
C            2.72022865966537       -5.61914764382898        0.37016687469812
C            3.53464613683632       -4.85081454039821        1.20394918515479
N            4.65784217219363       -5.41868065211790        1.84325509924653
C            5.07002379724634       -6.79591820568741        1.57985761596563
C            5.45979899124014       -4.65498793268005        2.79660334253091
C            3.20643464460409       -3.51015166023792        1.38804084084972
C            0.42335481680365        0.52223014803772        0.69836462264605
O            1.04626928032552        1.30757942077858        1.38867699382795
N           -0.73281455732007        0.74695363855657       -0.03302213156645
C           -1.42562753207073        2.02159098575907       -0.05440666544422
H           -2.39123347058882       -1.65321813018896       -1.81561674710798
H           -2.16123125330888       -0.01774730306596       -2.43890900996232
H           -3.17436981354963       -0.28866945445881       -1.01524672518523
H            2.43849277868574       -0.98005862395639        1.62650721859675
H            0.45494615231959       -3.32340939484059       -0.54834444006545
H            2.93929759868272       -6.65887978458143        0.21463174868611
H            5.16222525991281       -6.95996458204732        0.50826222572599
H            4.33506060485922       -7.48783893108524        1.98598434318168
H            6.03390647345809       -7.00963438956280        2.03622379524750
H            5.96345622798651       -3.83600182208127        2.28739126666705
H            6.21375358680670       -5.28316389044038        3.26562966455086
H            4.82234261857606       -4.25111497699134        3.58041313114166
H            3.81871197204250       -2.89700906840981        2.02186251561813
H           -0.80567600740637        2.77167937067974        0.43427032369321
H           -2.36978831890495        1.94046141774973        0.48021542816206
H           -1.61487974462901        2.32975678253168       -1.08053519199316
