35
 energy: -6.599136538766 gnorm: 0.000864117452 xtb: 6.6.1 (8d0f1dd)
C           -2.49874011798945       -0.75931001982600       -0.92094594006609
C           -1.13747933539324       -0.52563219329358       -0.39836831428519
N           -0.22672096270268       -1.44954766474685       -0.27859837319028
C            0.90628120120341       -0.85902602503167        0.24042414407530
C            2.10123808277463       -1.45267018498718        0.53449532246310
C            2.41003915543865       -2.83473942063434        0.34653928875833
C            3.67599246014559       -3.33116746936236        0.69227881353668
C            3.98647022960210       -4.65305190085192        0.51953889884925
C            3.05361458939718       -5.55577299250535       -0.01178899757691
N            3.37546777066956       -6.90586268581413       -0.19339717661396
C            4.64716219349668       -7.46156435620363        0.26869278376847
C            2.45250025824885       -7.83436098503640       -0.84540621277977
C            1.78867261327481       -5.05913579841784       -0.35754153704221
C            1.47900214037076       -3.73884392437943       -0.18182733617801
C            0.63962516739332        0.56533338159018        0.44671205699651
O            1.39891269951200        1.41268783400278        0.88750791276248
N           -0.66969574648227        0.72231131752949        0.02230366463513
C           -1.38054380170746        1.98680632652395        0.06258109295544
H           -2.67563142601038       -1.82553843104023       -1.06018059876408
H           -2.63392077662236       -0.26310536930350       -1.88173559789825
H           -3.24956984778131       -0.37818089549723       -0.22911153651537
H            2.86984930183283       -0.81978687187909        0.94053906900614
H            4.40753467996318       -2.65355557459534        1.09780094446294
H            4.96670381719410       -5.00608280653973        0.78505202131029
H            4.80865935899177       -7.20849369169981        1.31427528690071
H            5.46578491185163       -7.06107499122001       -0.32532640496443
H            4.65630388113050       -8.54550612728480        0.18090839564804
H            2.12852740069218       -7.42937138142103       -1.80216679256984
H            1.58204236946222       -7.99885236439327       -0.21329321024908
H            2.92829626532937       -8.79480159009813       -1.03253973732601
H            1.05004103050808       -5.72978059090100       -0.75825201731617
H            0.50505494482378       -3.37500776980183       -0.44944955459651
H           -0.69687493595160        2.77119304904655        0.38314895124706
H           -2.20723596318948        1.92862093944584        0.76742538286671
H           -1.76433360947834        2.23280122862386       -0.92529469231199
