35
 energy: -5.656211676365 gnorm: 0.000503761644 xtb: 6.6.1 (8d0f1dd)
C           -2.68296221661403       -0.51057989260181       -0.61777668269164
C           -1.36170741562489       -0.19050457252224       -0.04107737274460
N           -0.37931428145949       -1.04022897388967        0.06053990062308
C            0.68971908795683       -0.38256174666133        0.63010083723423
C            1.92587089281148       -0.88630051274988        0.92200811043415
C            2.36091137673605       -2.22991712294328        0.68792242173166
C            3.66081471850567       -2.58966319240265        1.10436547957044
C            4.31973751179303       -3.77967047358950        0.88539400498708
C            3.97151379132337       -4.76135405943932        0.00271549735959
C            3.29982327004305       -4.63896615656746       -1.11913882631175
N            2.76495807040002       -5.63703647159145       -1.70270434084715
C            0.45478756408864      -10.85946712686388       -5.59214000574752
C           -0.84137496054988       -8.63400567422796       -8.36015268197890
C            1.51620643967901       -3.14220545116723        0.14308340005625
C            0.30256220045589        1.00555605150832        0.88622555832580
O            0.98228763730435        1.89356260690972        1.37416233361901
N           -1.00762350486451        1.07233263839806        0.44135426696394
C           -1.81318276225103        2.27817401163662        0.49626365837417
H           -2.77762900567166       -1.58396983591255       -0.78058994096982
H           -2.81769426544735       -0.00837254189708       -1.57554894422786
H           -3.48430829254520       -0.19631828479643        0.05060647310178
H            2.62903230713223       -0.20401955286018        1.36571235403490
H            4.17436396166623       -1.85429737850678        1.70424661066740
H            5.22084854445013       -3.95699595715724        1.45385480994302
H            5.37982301686627       -8.52426683597229        2.85677868331840
H            2.05963596750499       -6.11035619723472       -1.13651210258785
H            3.44086595248108       -6.31106655963089       -2.06159556296004
H           -0.41934577726808      -10.51907292668381       -6.00610581392632
H            4.84647230972941       -4.09947187177561       -2.14261518304207
H            3.10627196778899       -3.05831177539114       -1.73319036256548
H            0.02601253596859       -8.86635310658655       -8.85008811375707
H            0.54581372329455       -2.91409901779229       -0.18184419913577
H           -1.19944854396126        3.10153224259011        0.85811478239200
H           -2.65113320051523        2.13676644096946        1.17561074484584
H           -2.18858862054742        2.52428927707052       -0.49477979409320
