46
 energy: -9.769097252460 gnorm: 0.000773226282 xtb: 6.6.1 (8d0f1dd)
C            1.32766659461636        0.15885057875385        0.10832468516195
C            0.65769126974940       -0.05031756754584        1.35166091121124
C           -0.64170125101638       -0.39588118053347        1.43601026213742
C           -1.37359231199267       -0.63020311687813        2.66219581199804
C           -0.79198018715802       -0.47472029096687        3.94142132716600
C           -1.51907861627817       -0.68916953978755        5.07314077175857
C           -2.87088096415120       -1.08675420289064        5.00844237977068
N           -3.59114008681654       -1.23614313951730        6.13726188081534
C           -4.84399970874933       -1.54987403457458        5.95090219540331
N           -5.51448371131133       -1.78575624234325        4.83140560967411
C           -4.81173125971645       -1.70522816168447        3.71283746437122
N           -5.46197978621650       -2.03214900344211        2.51506681430136
C           -4.95935327998358       -2.65412651105475        1.34379724455366
C           -5.61050605757921       -2.47879853987510        0.12388452326897
C           -5.13761411291399       -3.08714348447432       -1.01639879771580
C           -4.01503487999245       -3.89062902440093       -0.96007180907098
C           -3.37025626011189       -4.09111663938768        0.24510072292031
C           -3.84029212845260       -3.48513090679467        1.38714848685805
C           -3.45203486709940       -1.28953272983031        3.74323915971448
C           -2.69657699131097       -1.02402332381460        2.59373535469490
C            2.63148498869842        0.48474791018279        0.02126427184628
C            3.36745017001313        0.70287041433396       -1.21076746219050
C            4.73776230574654        0.97433796885639       -1.15576909607241
C            5.46577037386633        1.18165209070827       -2.30584114901442
C            4.84549157972927        1.12415702111160       -3.53812240803629
C            3.49241199659631        0.85968542934743       -3.61618307893360
C            2.75965461436227        0.65105142475748       -2.46886776931689
H            0.74996290462963        0.03818378206636       -0.78972844159953
H            1.23352382589878        0.07115141378180        2.25079280146415
H           -1.18849362366843       -0.51906233649663        0.51723377961792
H            0.23511744112507       -0.16830943526751        4.02305089279647
H           -1.07806775391051       -0.54898974175026        6.04443805290879
H           -5.42870084227795       -1.64520016805307        6.85512032739814
H           -6.47663249490737       -2.04276500723343        2.61418415924507
H           -6.48267814190685       -1.84969878508096        0.08648082247690
H           -5.64443498286693       -2.93708053362291       -1.95568639905621
H           -3.64581867455542       -4.36488454216290       -1.85461311454792
H           -2.49991526213408       -4.72499162407361        0.29158091703252
H           -3.35379392644760       -3.65019433473587        2.33249844644511
H           -3.16214199857452       -1.11779014819375        1.63134326894041
H            3.18515229447065        0.58849325480023        0.93821706462696
H            5.22455449162736        1.01845247796670       -0.19611617577849
H            6.52225397154841        1.38734617183251       -2.24370472384091
H            5.41637993990859        1.28531399790216       -4.43790971673809
H            3.00827988690384        0.81584508458412       -4.57852648422987
H            1.70602551260240        0.44983527548715       -2.54591378443058
