29
 energy: -5.725367959903 gnorm: 0.000394335988 xtb: 6.6.1 (8d0f1dd)
C           -2.66460256957701       -0.46663085491262       -0.92016832183657
C           -1.27480692008454       -0.37919186140925       -0.42978956549549
N           -0.41849747896983       -1.36123295170910       -0.46620854092826
C            0.77496185898277       -0.91929646404183        0.05699328203396
C            1.96378922842698       -1.57027657295768        0.28951957505311
C            2.45034839823127       -2.91199534098396        0.07949488753528
C            3.67594035202875       -3.21886044087585        0.69651544275845
C            4.26542354426725       -4.45116271568190        0.58498829356325
C            3.65877337186401       -5.44780737878246       -0.16201132567642
C            2.47021170461540       -5.19602787291000       -0.79279091489609
C            1.84235224792390       -3.94663180595411       -0.69984514798593
N            0.66973022702466       -3.75526614559666       -1.37973094866742
C            0.60914039551361        0.48840711798417        0.42754197273653
O            1.44460246576150        1.22728187112810        0.92342589432725
N           -0.70163419163202        0.78165879870754        0.09143063752793
C           -1.31275564403796        2.08119961325024        0.30060075905908
H           -2.96972488921020       -1.50828328804756       -1.01682808948605
H           -2.75897464108530        0.00750517222459       -1.89682227049624
H           -3.35123536625702        0.02540442389083       -0.23169536312936
H            2.68578103611053       -0.92853717572438        0.77048218061851
H            4.16100509990222       -2.45859247090613        1.28501554885012
H            5.20269638940107       -4.64732035640240        1.07938547414803
H            4.12429324990305       -6.41580930559540       -0.24891302161071
H            1.99999444748831       -5.96246136431510       -1.38358171067027
H            0.09426227990548       -4.50546799495177       -1.73795258242437
H            0.14660608636505       -2.91864793691342       -1.15858524864234
H           -0.54822836858710        2.78791468208979        0.61897698373317
H           -2.07578961744388        2.01463661563471        1.07311891451025
H           -1.76301269682715        2.43763200375791       -0.62338679450764
