51
 energy: -10.931977864228 gnorm: 0.000587630486 xtb: 6.6.1 (8d0f1dd)
C           -2.73430223096239       -0.10408956538740        0.04297168372158
C           -1.31391484342144        0.30501648339414       -0.03853654673598
N           -0.96221747353219        1.55015499635067       -0.19068951950784
N            0.39157553677464        1.61151698928523       -0.12458785896178
C            1.11558021611469        2.83400677227391       -0.22022005159564
C            0.43127069828647        4.02465524623286       -0.41391570511513
C            1.11473941488135        5.21664752888527       -0.50282630916416
C            2.49210610123101        5.23217379385892       -0.39950228469736
C            3.18351931699827        4.05211686733935       -0.20693564436744
C            2.49892306576602        2.86154015953641       -0.11805808904593
C            0.97374770967657        0.34813682579238        0.09248649606166
O            2.15052782184520        0.07039903354750        0.23519159897645
C           -0.15932656448976       -0.55150078300437        0.11200933965347
C           -0.03517186389299       -1.89832151508380        0.31869591640043
C           -1.08091391559427       -2.89395658369401        0.24111751249631
C           -2.07885324872606       -2.97853745394378       -0.69890782433384
N           -2.75746023494305       -4.14376212459531       -0.42281833564792
C           -3.89884826616550       -4.65146132781458       -1.14307143463992
C           -4.74891212658497       -5.54907571130947       -0.51754790406019
C           -5.84990784106687       -6.04829173648251       -1.17807089766716
C           -6.11045673054199       -5.65637895347527       -2.47585441300623
C           -5.26638443842178       -4.76672991777767       -3.11034398199721
C           -4.16584287333898       -4.26642685838874       -2.44895877249034
N           -2.24754084693990       -4.79895148874441        0.62644747966826
C           -1.22890127831825       -4.07655105654222        1.05398970339558
C           -0.41935483486341       -4.45369333879026        2.21571752155900
C           -0.41067214918381       -5.78054962599647        2.63865071003792
C            0.32783381897478       -6.16840958555864        3.73380957370182
C            1.06758492271129       -5.23635302779466        4.43335949884653
C            1.06070769300158       -3.91391715556002        4.03721896153099
C            0.32330881176928       -3.52370031987200        2.94218598752466
H           -3.33613414922387        0.70650746938114        0.45365466894835
H           -2.86083797117747       -0.97116108387298        0.69107746312817
H           -3.12985875831483       -0.34124619892195       -0.94418460406250
H           -0.64132071090769        3.99443836841441       -0.49039899688370
H            0.57456940020958        6.13708083739110       -0.65240089037344
H            3.02705542210132        6.16502049875923       -0.46864294771718
H            4.25803403300159        4.06272622022312       -0.12565059543921
H            3.02037025923982        1.93287432441684        0.03385070970241
H            0.95931841175784       -2.25039654951948        0.53947912053566
H           -2.25262045070234       -2.31463314943048       -1.52604077087064
H           -4.52956776651620       -5.84686117278323        0.49280335708846
H           -6.50637215341635       -6.74419441135444       -0.68209898163770
H           -6.97090499641855       -6.04653333251420       -2.99422588125128
H           -5.46719674870744       -4.46463994397289       -4.12506453825742
H           -3.49983184566872       -3.58216863301587       -2.94416696347426
H           -0.99449361178502       -6.49952996631211        2.09050017612181
H            0.32732506693256       -7.19998391285144        4.04573672467557
H            1.64597577579364       -5.53959230535945        5.29055495149249
H            1.63236245751554       -3.18454963647081        4.58748754429939
H            0.29921496925234       -2.48757398889632        2.65647404344016
