53
 energy: -11.413034683159 gnorm: 0.000742076548 xtb: 6.6.1 (8d0f1dd)
C           -1.77526825976299        0.11911449236858       -1.71206187907448
C           -0.60523138276131        0.62454434224300       -0.95988551826280
N           -0.54312125471181        1.82479378591566       -0.46229065785281
N            0.65432892007489        1.94920981043868        0.15701331105490
C            1.05543513648581        3.15128564029482        0.80688696173776
C            0.20168137832812        4.24399876201790        0.81461238427468
C            0.57189901840906        5.41577247605774        1.43472702780361
C            1.80180892239815        5.50974068122322        2.05529765670230
C            2.65979898151781        4.42823975459380        2.05396303001158
C            2.28806650317075        3.25795510314865        1.43377426318324
C            1.42872905625616        0.77353828978643        0.07990068897879
O            2.53200410381711        0.61129091707548        0.56522936858771
C            0.59038526794686       -0.13373893235321       -0.68770870079308
C            0.81176202366606       -1.41857197224972       -1.10568472176721
C            1.95624966649877       -2.24603454376688       -0.86776092303201
C            3.04704317434842       -1.97669492211075       -0.08509410658486
N            3.80874823335240       -3.12033299819774       -0.07321480708271
C            5.04700053569276       -3.30639740610365        0.63815139012271
C            5.81580765583238       -4.42764422032026        0.37437497714272
C            6.99992544892458       -4.63877845390293        1.04436733349200
C            7.42779521780067       -3.72844023295603        1.98874395433100
C            6.66835520520627       -2.60883714468708        2.26106397914924
C            5.48445290925776       -2.39739402853977        1.59020415165235
N            3.27014051118026       -4.09522238495459       -0.81113966534228
C            2.15933171566486       -3.59938236717042       -1.32667148680239
C            1.28742560929423       -4.36996596584042       -2.21954479107470
C            1.18598798635784       -5.75074074572062       -2.05476889598149
C            0.37852436338076       -6.49897206485401       -2.87640528063429
C           -0.33756213383465       -5.88972583404138       -3.88949668725150
N           -1.20295782833809       -6.68324964125436       -4.75580367150418
O           -1.26513445804637       -7.90626855424060       -4.56844648047573
O           -1.84236505904485       -6.10179106576636       -5.64337031392038
C           -0.22650517232439       -4.52542083616421       -4.08214676615265
C            0.57857413074149       -3.77199612013926       -3.26277755404158
H           -2.54327505790405        0.88931250580674       -1.77990406089420
H           -2.21113546155108       -0.74843214836352       -1.21674962942400
H           -1.49380674183768       -0.16665433745050       -2.72549029882096
H           -0.75239534665573        4.15391936432414        0.32600018113769
H           -0.09818863430411        6.25954004976095        1.43524320534752
H            2.09197451555934        6.42698491959915        2.54028821098386
H            3.62013616101858        4.50033257170985        2.53731615927970
H            2.94435511673196        2.40611936206143        1.42165727928263
H            0.01044872895781       -1.88090429138835       -1.65127677572714
H            3.25996901903685       -1.06018830870105        0.42654606285167
H            5.46582801519243       -5.12884929480377       -0.36252244066525
H            7.59092083374319       -5.51390124146806        0.83107474346765
H            8.35342191551807       -3.89278608493508        2.51493601234478
H            7.00156191217917       -1.89911266068293        2.99993359256505
H            4.88930433212148       -1.52750266953297        1.80324055291396
H            1.74960014988814       -6.22018656879668       -1.26736193213329
H            0.28962191183566       -7.56451401729753       -2.74850560715685
H           -0.77667413701590       -4.07215825950027       -4.88926738938123
H            0.70046664076738       -2.71999251009786       -3.45045543650921
