82
 energy: -16.091017207850 gnorm: 0.000704379861 xtb: 6.6.1 (8d0f1dd)
C            0.75907093901322        0.86446602309847       -0.77924139544081
C            2.16540367887510        0.63090406936834       -0.41106570412201
N            2.93705242620582        1.52493372508186        0.18726887283886
C            4.24371139333471        1.04688070888564        0.45576362783405
C            5.24642400564063        1.84332340729147        1.08454867371672
C            6.62593513713567        1.44765167293055        1.20450514449046
C            7.24355886512547        0.53983264181263        0.42257334673749
C            8.64383392923988        0.17764271263307        0.49769023422240
C            9.18130528970234       -0.68637826644206       -0.45913145628809
C           10.51286497410551       -1.02855005608181       -0.43328670569507
C           11.34249747472042       -0.52286378321557        0.54564850054459
C           12.81605090804822       -0.89282499873141        0.54531466216631
F           12.92063850339420       -2.23799289503201        0.57195141494705
F           13.37713627661529       -0.40484551469168       -0.58096883868953
F           13.40991051888460       -0.35661155221773        1.63223724695306
C           10.82767643321464        0.32514095112253        1.50481482186850
C            9.49696158680941        0.67248927330551        1.48679068501956
C            4.82466650963667        3.09048502524162        1.56201814163669
C            5.52538331650462        4.11280554033976        2.25108687908541
C            4.65341887530595        5.15971437238048        2.46245414144658
C            3.39919858764733        4.82909689631283        1.90207927529775
C            2.15490730035176        5.61769047718762        1.88116196251822
N            3.53480211073480        3.60555989984242        1.38461392821064
B            2.41721089873188        2.88884151856216        0.63396872723159
F            2.05969670822532        3.63348903006814       -0.48287328218868
F            1.33619293068287        2.70778639326342        1.48850412666392
C            4.24334584276579       -0.26417814802792        0.02217260581038
C            2.96831612049834       -0.55333233311873       -0.54592276725807
C            2.59371102406558       -1.79452634266245       -1.11721205195828
C            1.39789545275666       -2.09094008974341       -1.83365101211385
C            1.45108290473976       -3.41359584886139       -2.22341958975534
N            2.67611564450368       -3.91379717268151       -1.72293612743457
C            3.37189489008999       -2.99430569287548       -1.08459968141570
B            3.11346333840461       -5.36792467117333       -1.89933842638137
F            3.24453973826907       -5.95426808261896       -0.64598214792665
F            4.30412681855206       -5.39380318006370       -2.61603527221845
N            2.04106813703010       -6.11931908057952       -2.69114566907992
C            2.12547678631418       -7.39954271358500       -3.03647434727623
C            0.97294748091225       -7.69169101385331       -3.79542058619209
C            0.20524823208512       -6.55367946112472       -3.89157702771126
C            0.87125881329966       -5.52042630348224       -3.18084725086063
C            0.53717539705577       -4.18246686699317       -2.98768459622674
C           -0.67328256392506       -3.57216777298085       -3.58682922173300
C           -0.55279319452098       -2.71224898710408       -4.69500965984952
C            0.78221429525999       -2.40273324921442       -5.27785930591148
C           -1.68770974632843       -2.13536798992149       -5.23136725841078
C           -2.94794781929321       -2.39601233495354       -4.71764652719012
C           -4.16388564379442       -1.78062272591856       -5.31578697733523
C           -3.05804022847649       -3.25200865999908       -3.63424868685532
C           -1.94835019685101       -3.83499723320021       -3.05257095327902
C           -2.11323579764058       -4.74371564694566       -1.88510238683391
H            0.43815175200774        1.84069040537038       -0.41286676675801
H            0.10776508916677        0.11063100005371       -0.33702684105804
H            0.63058765587903        0.85641546687635       -1.86141624787410
H            7.21353228461816        1.97973837038773        1.92936580186747
H            6.68357349194125        0.09621457009897       -0.37892138556739
H            8.54095514788525       -1.08115154097908       -1.22916809269016
H           10.92998550880891       -1.69026273431985       -1.17396466672743
H           11.48985996530846        0.70841552712103        2.26288453674920
H            9.11412140877626        1.32955371239865        2.24653107598256
H            6.55812963394117        4.07885863632730        2.55267433482090
H            4.88491420192943        6.08576719325260        2.96185239342772
H            2.34289496539839        6.66450868406920        2.11959932226548
H            1.44030345512349        5.21896943287966        2.60148884381633
H            1.69515928476552        5.56406340836663        0.89354671524910
H            5.04333942115239       -0.97291871346038        0.13091070234030
H            0.59846430769366       -1.41225142816032       -2.06535498302569
H            4.32911792277600       -3.15893000760397       -0.62178292905734
H            2.94167422350605       -8.05387982730760       -2.77680129157651
H            0.73795218387806       -8.64885060556086       -4.23259630536597
H           -0.73047393783662       -6.45184720992507       -4.41424502553833
H            1.47259921303872       -3.23642582436376       -5.14690136706309
H            1.22035301201864       -1.52629340315940       -4.80004114045221
H            0.70842054375745       -2.20246480012576       -6.34692645033784
H           -1.59009443536794       -1.47156186199505       -6.07163636793601
H           -3.90590095972808       -1.08514153031607       -6.11476198801529
H           -4.72945822156715       -1.22896420505623       -4.56442577105746
H           -4.81762351857033       -2.54485569792478       -5.73683742112339
H           -4.03316127344428       -3.46286051306415       -3.23290686384852
H           -2.96781428934027       -4.44947866181869       -1.27545617149508
H           -1.23114899890842       -4.72664536438394       -1.24450455259454
H           -2.27056434237109       -5.77137814827430       -2.21284320301735
