97
 energy: -19.221393915096 gnorm: 0.000845078161 xtb: 6.6.1 (8d0f1dd)
C            0.13326843721259        0.09108341332226       -1.19653320857131
C            1.57425960897382        0.04280151352883       -0.90116390915175
N            2.38129984043807        1.09709607091693       -0.77910516430148
C            3.69790605038500        0.76640599087407       -0.50903056630613
C            4.71313257279717        1.71131179894810       -0.33286973213820
C            6.09302191486840        1.30547605013906        0.02507457596633
C            6.40814730846084        0.99716334404937        1.29550260500804
C            7.81079583733456        0.68095444256280        1.72719518644743
O            8.49813943913329        1.82607462407968        2.26963108403605
C            7.67232172887073        2.70094483316874        3.03165814707960
C            8.49784920312316        3.70582535417834        3.83308107117831
O            8.98718172442183        3.19793016147552        5.06439210512004
C            9.58685235958728        1.91563143830509        4.95406593450908
C           10.36568587230767        1.53284395910776        6.21376670780445
O           10.55266364849133        0.13163535995146        6.38973906241122
C           11.17563928056416       -0.53091817812134        5.28644132653675
C           10.26402368976707       -1.59392775112486        4.67934175703809
O           10.83352015053982       -2.23277984959765        3.53613831868021
C           10.27472256466626       -1.79370261956349        2.30393249655288
C           10.49112361384563       -0.31051473105529        2.03963265233292
O           10.06328397985401        0.11864692218136        0.76264908553739
C            8.64565728469128        0.05173890991600        0.55484574181917
C            8.29985467875508        0.67128180570940       -0.76609004159696
C            7.12368422190801        1.23967943200198       -1.00149054809986
C            4.34708280919482        3.06235676857911       -0.46722592482565
C            5.17074054902325        4.23820628830975       -0.33793894733729
C            6.53331812245897        4.41747741645195       -0.08439518335294
C            7.03529695100261        5.69365865140055       -0.01317648829548
C            6.20480347112830        6.80316869850280       -0.19474318565753
C            4.86303253012211        6.64961804122851       -0.44800645269210
C            4.33323507804852        5.35689677540242       -0.52184975611573
C            2.99324279454165        4.88082972681264       -0.76918426325758
C            1.86203210931684        5.72311255633273       -0.97624694093465
C            0.60668849174956        5.28869524966429       -1.20525442080843
C           -0.55945102178573        6.11931393319881       -1.38646950864370
C           -0.50683181044102        7.51878937764551       -1.35950805290946
C           -1.64134158041533        8.27258450463668       -1.52191509980087
C           -2.89147772440245        7.67075811402674       -1.71950802912450
N           -4.05188569079935        8.44238046542660       -1.87808023741317
C           -4.00710772683731        9.90496618908340       -1.87689158637248
C           -5.36807784548775        7.82268403350683       -2.03372291117381
C           -2.94159827961317        6.27074664528558       -1.75025712827985
C           -1.80747636563200        5.51733782465389       -1.58852190786162
N            3.07099890927322        3.52563215235031       -0.72668457397520
B            1.89822123955614        2.54442438057540       -0.91320949236582
F            1.36490232687193        2.70034204182581       -2.19339852681410
F            0.94453195539282        2.76896369035481        0.08059605141754
C            3.72194236906745       -0.67031840915095       -0.46421145504048
C            4.74632918382277       -1.59871153258871       -0.25147055449798
C            4.44212709978575       -2.93642317828591       -0.27884210927610
C            3.13275002798135       -3.37660873493273       -0.51609142353441
C            2.11169361344174       -2.48528464713371       -0.73144484640465
C            2.39922093187651       -1.11332785350833       -0.70872769954855
H           -0.21522762323032        1.12512268922288       -1.19273023510969
H           -0.43785979014102       -0.46348681254406       -0.45091508014373
H           -0.07635827050490       -0.33342897930294       -2.17910190774408
H            5.63190987013014        1.03808293942267        2.03922193016568
H            7.76260734865178       -0.04336766842827        2.55477813890743
H            7.04241042533262        2.10710247844332        3.70129818224993
H            7.00666847221581        3.21188842384071        2.32775825854077
H            7.90878912065140        4.59728938434812        4.07893977594567
H            9.35604081094683        4.04218058050167        3.24181386924866
H           10.23189732026990        1.92453298914079        4.07037930083890
H            8.78587307427190        1.19141492964846        4.77840745204339
H            9.81774044191932        1.88077515830561        7.09577313536360
H           11.34367352823379        2.02435519957161        6.24244412271586
H           12.09979624556446       -0.99068523318683        5.65268722069809
H           11.48176479826352        0.20465731780811        4.53797269078624
H            9.29244049311441       -1.16666820286916        4.41232227452162
H           10.05701648134117       -2.37313856429060        5.42084418564581
H            9.21113823554168       -2.05138913463521        2.30237256434857
H           10.74059592259656       -2.38600334807837        1.50971846914116
H           11.55735583473955       -0.07182687738431        2.11222708995936
H            9.98178874889710        0.30435544320702        2.78248595255017
H            8.40076152361932       -1.01906919770647        0.48980603858794
H            9.06143871825340        0.66186844458757       -1.52645827360681
H            6.90394930065774        1.66939255126041       -1.96371965697450
H            7.17134335119845        3.56376149084933        0.05140924565747
H            8.08438789415783        5.84147169199259        0.18562470655794
H            6.62504419088262        7.79415303495162       -0.13622893668013
H            4.22219744302379        7.50188299321797       -0.59007759752420
H            2.04121030062862        6.78104461705181       -0.93172996573471
H            0.44764202526071        4.22858346447528       -1.25035195873539
H            0.43673589118176        8.01188654983448       -1.20689211153056
H           -1.57407758987243        9.34571029485386       -1.49253764158958
H           -3.33226545346267       10.26002105446909       -2.65425442932731
H           -3.65849797695586       10.26757474378220       -0.91109571761940
H           -4.99095399003872       10.33121555440188       -2.06526516490830
H           -5.57758677120442        7.17017294388340       -1.18746514987818
H           -5.39916901848728        7.23571176813523       -2.95036136023391
H           -6.15532973523790        8.57287438699579       -2.08300681101483
H           -3.88621522967401        5.78043261012687       -1.90542039172290
H           -1.86624743076287        4.44230878701126       -1.61243172121169
H            5.75014148762262       -1.25580199873348       -0.07781228173019
H            5.22343431083517       -3.66106863949678       -0.11615357386069
H            2.92600305276339       -4.43451240854191       -0.52973273683220
H            1.10506468753063       -2.81818891469625       -0.91506593382851
