83
 energy: -16.209408583591 gnorm: 0.000662219010 xtb: 6.6.1 (8d0f1dd)
C            0.62619628964690        0.33280918423019       -1.13906193386338
C            2.02843757057717        0.27923683299737       -0.69321682105822
N            2.83229319560216        1.33287780944516       -0.61503320647554
C            4.13159290292053        1.00955176724741       -0.16320475125036
C            5.17563061586196        1.99525215404993       -0.04028342610749
N            6.46352958483328        1.71589060593882        0.18388990027978
C            7.18784200102199        0.43329236276834        0.23294186355562
C            7.14197442975471       -0.27658912873889       -1.11463244481571
C            8.61113161260750        0.63176048379946        0.69976767057631
C            9.08818439726029       -0.02885011491664        1.82148971174519
C           10.38995321656641        0.14988540674939        2.24131866800101
C           11.23116657184239        0.99132389894602        1.54456556725415
C           10.76873881503020        1.65325183035179        0.42712300024537
C            9.46706291771506        1.47310224529656        0.00791202805800
C            4.76687754254013        3.35064689422074       -0.23799338983779
C            5.48734169718436        4.54639871896813       -0.11626466116485
C            4.62977313155532        5.59621428160111       -0.43124195303238
C            3.37654038711621        5.06543427167141       -0.75682005168329
C            2.15466646596124        5.78008964880579       -1.16507336821790
N            3.49537583034138        3.72839101194248       -0.63319469742933
B            2.35891448722597        2.75148195900852       -0.93410354070082
F            2.03071041217699        2.83104448369569       -2.28408344014524
F            1.26670787552784        3.06093256310876       -0.12849753566434
C            4.10208343418383       -0.33837685466660        0.09178595308889
C            2.80415176145047       -0.83742778379721       -0.24418180421960
C            2.40982517916459       -2.19439054753218       -0.13805714901736
C            1.18608909507452       -2.77990406866448       -0.56372878963621
C            1.24341342804547       -4.13407768458822       -0.28965356698923
N            2.50053683023126       -4.35173183807222        0.31680538861886
C            3.20950982339716       -3.24643506639927        0.41363444954245
B            2.96585484578000       -5.72492915419571        0.80549787043233
F            3.18312526381944       -5.66658155168833        2.17916085796747
F            4.11674473365178       -6.08350878613486        0.10926364183772
N            1.86783527962302       -6.75276357684214        0.51639747373239
C            1.95834806761080       -8.04549220576199        0.80288475432537
C            0.76622552510891       -8.64832003857408        0.34317054835670
C           -0.02797146905629       -7.68030079533030       -0.22312808737826
C            0.65946358381729       -6.44053461529763       -0.11912624124121
C            0.30181841675565       -5.16213579539396       -0.54237712527961
C           -0.96676379166420       -4.89259498875997       -1.26018054688028
C           -0.95286311592055       -4.63076501058054       -2.64330765022962
C            0.32883039356629       -4.60932571551798       -3.40173451796726
C           -2.14311785580812       -4.37217321453026       -3.29591857348469
C           -3.35709882194823       -4.38769524554118       -2.62764720944549
C           -4.63036505194762       -4.10386712926645       -3.34476289944153
C           -3.36141582987755       -4.64735185200895       -1.26675541540600
C           -2.19292281103801       -4.89016393579791       -0.56958297793052
C           -2.24301929289528       -5.16227645503820        0.89344523802134
H            0.33957372594025        1.36660379774123       -1.33710634879477
H           -0.04377875841118       -0.05987015233445       -0.37408790251175
H            0.48583371207287       -0.23397568150052       -2.05951071594517
H            7.12777310230412        2.48331582383123        0.24084013344701
H            6.67894039482435       -0.17686217298173        0.99260695307464
H            7.66295659502325        0.31041782597785       -1.86978441374901
H            6.11950820676737       -0.41201418178342       -1.46530410146865
H            7.61994176307844       -1.25549573054376       -1.06644939465770
H            8.43215982219338       -0.68681377220767        2.36514661798133
H           10.75007097022111       -0.36974343734868        3.11393313972690
H           12.24848947483490        1.13043942151757        1.87194144823180
H           11.42438087892355        2.31061947100596       -0.11986325727018
H            9.10744649938761        1.98671531281008       -0.86706061985722
H            6.51939102471292        4.63671233693787        0.17720564001532
H            4.87949461217708        6.64434014088738       -0.42736934006708
H            2.31693922215728        6.33324863522987       -2.09020931423522
H            1.83663529332804        6.48109707066447       -0.39323780788505
H            1.34498736753521        5.06841240896811       -1.33238595647142
H            4.90166502774452       -0.93829902782909        0.48248899916509
H            0.36029617068401       -2.28000618412374       -1.03478692202753
H            4.19038115540687       -3.18138496988858        0.85026458736924
H            2.80168980317482       -8.51110147607732        1.28547278163414
H            0.52378793711648       -9.69602645342439        0.42124740830132
H           -0.99509657456066       -7.82371977892760       -0.67424399835059
H            1.05407953923404       -5.29931773586489       -2.96914239901468
H            0.76844441342093       -3.61158359525032       -3.39269851918568
H            0.17697402631769       -4.90126698338414       -4.44125230553011
H           -2.12683404364390       -4.15854591217991       -4.34980275000941
H           -4.49653311347250       -4.15375373932323       -4.42585874816486
H           -4.99974935490699       -3.10792976216266       -3.09823424125023
H           -5.40050059400156       -4.82647500526287       -3.07268597191342
H           -4.29881217266163       -4.65421285929909       -0.73954502843412
H           -3.08858569125810       -4.65582901586162        1.35982832119592
H           -1.33655867373415       -4.81384306616713        1.38954910074577
H           -2.34190133390886       -6.23076681318786        1.08634811622321
