114
 energy: -24.272344306211 gnorm: 0.000455054152 xtb: 6.6.1 (8d0f1dd)
C            0.94953475341351        0.35801375303026       -0.18584334482630
C            0.19906038101959        1.48955172787978       -0.28624124833288
C            0.81032105265327        2.83432773467964       -0.42028232668424
C            0.55239676842661        3.82747381145161        0.52377209496924
C            1.12494797366977        5.07458906825153        0.40607060443350
C            1.95907717096278        5.35605502919042       -0.65775620208964
C            2.21661839821943        4.38794425491225       -1.60807761891878
C            1.64620848924760        3.13941261449193       -1.49447899435944
C           -1.27624833079395        1.39470244155938       -0.31537016006530
C           -2.02823499325135        2.33004253586708       -1.02593923271589
C           -3.40353542212315        2.25896963321257       -1.05457595221187
C           -4.05864659155281        1.25430530045846       -0.37141163928756
C           -3.33322779021194        0.32237451423928        0.34334182743412
C           -1.95735619166402        0.39067897440538        0.37379072810486
C            2.39342523012468        0.25539876052929       -0.04539518764138
C            3.02975028856726       -0.94743319291784       -0.36500094067654
C            4.38860531825267       -1.09312429205827       -0.22043433940556
C            5.17700831730108       -0.04588584479743        0.25606948123181
C            6.63846543202720       -0.20621621780039        0.41982055654858
C            7.37625307184583       -0.97727230794987       -0.47340855142604
C            8.74834811510733       -1.15374538605539       -0.32376002691061
C            9.51124757920455       -2.00294780781924       -1.26440969389631
C            9.20523109894415       -2.02919996025106       -2.62491334525548
C            9.90668273735305       -2.83239233845984       -3.49213864382484
C           10.94128939844178       -3.65510282654602       -3.03746493380918
C           11.67125956647086       -4.48549968951565       -3.98328053753898
C           12.36039842288692       -5.62894334104267       -3.71565010790819
C           12.31432012407362       -6.28049567258450       -2.38395398017105
C           13.48616411064714       -6.51194379189242       -1.66466062290231
C           13.44232991956351       -7.10587957873169       -0.42258295061998
C           12.23146880459800       -7.48558546774541        0.12190279835852
C           11.06207127338326       -7.27386928245393       -0.58102377140476
C           11.10121829338147       -6.68028973756712       -1.82323587330269
C           13.13327161189927       -6.29077514925840       -4.78806571994402
C           13.27755549949154       -7.67790019145031       -4.80100316341046
C           13.99505974437698       -8.30571689045323       -5.79522019194846
C           14.58750636015235       -7.56215558131686       -6.79597198210069
C           14.46302304432352       -6.18734012718603       -6.79699903128309
C           13.74559956577257       -5.55640818123269       -5.80418451746399
C           11.25749087594517       -3.60894372124693       -1.67713629815113
C           10.55589118470817       -2.80733600058611       -0.81071831771519
C            9.38302706893445       -0.53177206401671        0.74670130797004
C            8.67801233917807        0.24594956150374        1.65936311807755
C            9.36883811749029        0.87488682686239        2.80656303435440
C           10.64162322167563        1.42728176716546        2.66490385864930
C           11.29298980076808        1.98674787763541        3.73803080615401
C           10.70633394185564        2.00918803074029        5.00663698590323
C           11.42349586087557        2.60852064013028        6.12208817441807
C           11.26495922293025        2.33292462545125        7.44591382684128
C           10.40126756049912        1.22445873541795        7.92057841436346
C            9.35298678471014        1.47063931961753        8.80633664472834
C            8.55155116006051        0.44179039414496        9.24949139251681
C            8.78402833116411       -0.85082565567128        8.82300985619532
C            9.82344291277118       -1.11423867568454        7.95310465236815
C           10.62729804387039       -0.08851115653482        7.50741255294985
C           12.01924611295368        3.10459416957571        8.45648349853975
C           12.42078115433019        2.50062607310060        9.64781836199163
C           13.11998958362616        3.20840812955833       10.60033753722839
C           13.43062921306740        4.53605261333140       10.38567357110232
C           13.03683219404361        5.15427166857951        9.21582715111595
C           12.33771531248773        4.44874725013131        8.26074006925043
C            9.42091217078803        1.47641330672098        5.13740910344737
C            8.76959286842510        0.91856804409190        4.06466684391084
C            7.30666986586652        0.39769487148748        1.48071085495479
C            4.54449179785871        1.15154251948930        0.58817208744951
C            3.18575949591769        1.29579235789885        0.44731819390695
H            0.42372849868033       -0.58005925291890       -0.22196248814598
H           -0.09801128837821        3.60208835987021        1.35153527997277
H            0.92159847242798        5.83183331143344        1.14567223514589
H            2.40811497335589        6.33192113756223       -0.74664296408115
H            2.86731029064159        4.60828094095502       -2.43859456386987
H            1.84690010517936        2.37928709703309       -2.22991195518402
H           -1.51662255050295        3.11275953160075       -1.55904666154517
H           -3.96873725891049        2.98922610598750       -1.61052923202894
H           -5.13493904301139        1.19948093667303       -0.39325190259055
H           -3.84485271181694       -0.45843662657198        0.88231975927434
H           -1.39908343624731       -0.32407036643832        0.95310018228644
H            2.43734103355189       -1.76834933217290       -0.73167647767975
H            4.85482335390681       -2.03335635033012       -0.45899732005621
H            6.87378835578361       -1.45393394783477       -1.29485214432808
H            8.41506015197625       -1.39969125374103       -2.99604661686677
H            9.65642659529787       -2.84166133775078       -4.53927903402825
H           11.64514707824665       -4.15596830177500       -5.00731441540200
H           14.42728316127563       -6.21158921684340       -2.09246241634405
H           14.35490853890116       -7.27359499030274        0.12590078553062
H           12.19892907785474       -7.94781246274749        1.09512215889613
H           10.11697856669938       -7.57013331500921       -0.15586298849300
H           10.19186749741308       -6.50791694070429       -2.37304886778377
H           12.81333979861451       -8.25707343966693       -4.02147260535079
H           14.09359381027718       -9.37906869091653       -5.79193118661493
H           15.14839979806247       -8.05384934865189       -7.57411904010654
H           14.93051256415083       -5.60581466574410       -7.57493794315621
H           13.67070202282166       -4.48283349696141       -5.79765600863034
H           12.06929949157353       -4.20802496363390       -1.30609517231572
H           10.79925412213089       -2.80936542800070        0.23769580990925
H           10.44179198070310       -0.66080656060008        0.87735273240163
H           11.10991181454354        1.41960587005601        1.69577232959884
H           12.27649661269746        2.40629239325192        3.61187001583488
H           12.17244873897372        3.33456519817342        5.85774650805886
H            9.17638323712845        2.48019969209860        9.13582308607623
H            7.74189697324382        0.64623158021724        9.93097160990594
H            8.15551572417445       -1.65457663027015        9.17056799985922
H           10.00550373561602       -2.12344663310001        7.62134455214751
H           11.43825184346703       -0.28818727457328        6.82814408725147
H           12.17950548709384        1.46480238863848        9.81359802059913
H           13.42469581060651        2.72489822302323       11.51422411568433
H           13.97752217224978        5.08976953307990       11.13144210119944
H           13.27421595797277        6.19265928633111        9.05069460043557
H           12.01398802067641        4.94175750855964        7.36056217926589
H            8.93404373194230        1.51030819428085        6.09530748526971
H            7.79039616797810        0.49066513248051        4.19335779155388
H            6.75037301110297        0.99010489173557        2.18366181995475
H            5.13641398601941        1.97504302668953        0.94848907317743
H            2.72072913090302        2.22142168149255        0.73310514406693
