76
 energy: -15.086853833513 gnorm: 0.000573505510 xtb: 6.6.1 (8d0f1dd)
C            0.81098552964515        1.45156547445751       -0.24748776684230
C            2.15801825674968        0.88276189808473       -0.08015338015840
N            2.94345262966477        1.10016067523001        0.96970329063867
C            4.18332551974435        0.43038017032595        0.87995339228371
C            5.20208899342721        0.50851408376926        1.89259080860183
O            6.41653557664682       -0.08697759660007        1.84110721348841
C            6.78124595237435       -0.79152078435214        0.66304421995039
C            6.61009503259219       -2.17311047625745        0.57839070004543
C            6.87449960137499       -2.83888028003601       -0.59540617716109
C            7.32867392824394       -2.14505068451103       -1.69988670282705
C            7.53455578346068       -0.78161381762857       -1.62133410361491
C            7.27000909552837       -0.10929591884832       -0.45137548095024
C            4.85823121053650        1.28711645812422        3.03228664890053
C            5.59306251502169        1.54574306011519        4.19587434707993
C            4.81960202790801        2.36173127552166        5.01237367084049
C            3.60242030334997        2.61706196495252        4.36556549667120
C            2.46408711711673        3.42537349720895        4.83504213447042
N            3.66041161440785        1.96280466050794        3.19011352193246
B            2.53090486619516        1.96866738520123        2.15898186629129
F            2.31740770651193        3.27117156393751        1.72057142519986
F            1.38272305121003        1.43646858831777        2.73596658757943
C            4.14192021805807       -0.25353921731819       -0.30594557888092
C            2.89272193008884        0.00661317527270       -0.94258106299112
C            2.52346979639294       -0.53879681488535       -2.19539557729917
C            1.32086034112778       -0.33370801839356       -2.92644418138096
C            1.40717074001963       -1.06496951641125       -4.09703172968773
N            2.66370860494104       -1.71179669128860       -4.05658835632632
C            3.34175843459775       -1.42479011581226       -2.96618924565352
B            3.16528349387547       -2.64780632310804       -5.15654383261551
F            3.37369220420704       -3.91161605740824       -4.61342303343214
F            4.32968083104108       -2.11721285679882       -5.70286153646064
N            2.09564313701667       -2.74060663605891       -6.24779199938247
C            2.21541833183496       -3.46763849630942       -7.35188319275463
C            1.03632419350697       -3.26422928675297       -8.10204204384779
C            0.21919573619922       -2.39846646957975       -7.41483127841271
C            0.87912071407847       -2.04633272285658       -6.20651450643891
C            0.48866925229391       -1.20437184356214       -5.16715311793981
C           -0.80323147407396       -0.47763212031668       -5.18134078272846
C           -0.83398952206762        0.90644744846522       -5.43519707233792
C            0.42543755150954        1.66106850603595       -5.68414257871296
C           -2.04675933503632        1.56895888460786       -5.43232903951251
C           -3.23984685571770        0.90088257084048       -5.20641137533099
C           -4.53994601335806        1.62587213933912       -5.20986989448453
C           -3.20036593401233       -0.46204347226030       -4.96214030315786
C           -2.00852283447502       -1.16112105887707       -4.93512502774356
C           -2.01119965388141       -2.62540884032059       -4.66542762033957
H            0.55927762403403        2.06782255319427        0.61686970708007
H            0.06123484622955        0.66445781667932       -0.32784761640988
H            0.75915451275406        2.08162571694895       -1.13541921972107
H            6.23832783911792       -2.69759209381659        1.44042535665289
H            6.72079174269649       -3.90382212644069       -0.65605692156039
H            7.52592950538737       -2.66787793639094       -2.62123608357488
H            7.89382008604576       -0.24186868845785       -2.48213754700862
H            7.40525655434825        0.95532733325824       -0.38238698781985
H            6.58016713322432        1.16847647790132        4.40424203576376
H            5.10061272863337        2.73975290726886        5.98141259974197
H            2.75794910879572        4.46477508175952        4.98130720309460
H            2.07370158556335        3.03930410533927        5.77669339582497
H            1.66039456696630        3.39995433818555        4.09775859380187
H            4.90986992615298       -0.88871619287604       -0.70203806319583
H            0.48514532372018        0.27578809078840       -2.63624823198149
H            4.31974998033435       -1.80657993492115       -2.73131580756600
H            3.06825310964189       -4.07921319542073       -7.59622124046687
H            0.81748813384835       -3.71310738612231       -9.05761670252778
H           -0.74686565363664       -2.04069543041012       -7.72794335592440
H            1.15553808482585        1.04429548239101       -6.20916222050831
H            0.87459946955941        1.98679988828573       -4.74563802632426
H            0.24195885017378        2.54556948684636       -6.29465079102877
H           -2.06503018137965        2.62857919897068       -5.61467906613014
H           -4.41570023843561        2.66446663431050       -5.51772591963501
H           -4.98745246718085        1.62333396324337       -4.21550603575297
H           -5.24427124820810        1.15730629485682       -5.89798737098226
H           -4.12179803373721       -0.98711600604675       -4.78355148512860
H           -2.85657220602438       -2.90928687216052       -4.03807854590893
H           -1.10089939758906       -2.93173453169729       -4.14911003258976
H           -2.07639148575398       -3.19100233925254       -5.59514936477338
