49
 energy: -10.094674855230 gnorm: 0.000677154171 xtb: 6.6.1 (8d0f1dd)
C            1.07235171916231        0.38616189869494       -0.14486798744334
C            2.50193332296660        0.07700868429822        0.02980294176756
N            2.99217371239975       -0.97015740910475        0.71695009837211
C            4.38752475647409       -1.00224664305533        0.70234436257383
C            5.16241832784155       -2.00517932643903        1.32847761359962
C            6.63570272596367       -1.99787410970375        1.29447576914711
C            7.36962013339504       -0.90225342995224        1.84026950404574
C            6.72437277917886        0.18798971097084        2.46284641776619
C            7.43567102196724        1.22614435394171        2.98867139643546
C            8.83284168172218        1.22999951558015        2.92916360899193
C            9.49924735033963        0.19124591545134        2.35347405822183
C            8.79427823740930       -0.90611473404895        1.80070678358692
C            9.46800042533675       -1.98872978635205        1.23513956810017
C            8.77824587167437       -3.07514932792628        0.69695294307664
C            9.46630196757135       -4.16780603713160        0.11431409713654
C            8.78284762989118       -5.20960690723083       -0.43530251770960
C            7.38441039129998       -5.21375162055667       -0.43767487509735
C            6.68933738952109       -4.18077800608031        0.11908452058967
C            7.35329679003377       -3.08775946748980        0.71658456724890
C            4.42904256596609       -3.01748527916692        1.98890046787887
C            4.85910459719634       -4.12951700938482        2.73866350053430
C            3.73208015400442       -4.80179022984324        3.19193502431337
C            2.58808356518522       -4.12017136326228        2.74187511272945
C            1.16732741193306       -4.43751328033170        2.97086565558771
N            3.03514763099979       -3.06706632995525        2.03571568780990
B            2.11832312672334       -2.02677029404644        1.39304754904526
F            1.34892726199946       -1.42002399756828        2.38130801501503
F            1.32440618100354       -2.64694627082743        0.43289611246389
C            4.76995390565988        0.11429331372617       -0.06643858614513
C            3.61573508379106        0.77216624864808       -0.46973618160547
H            0.46426544839839       -0.36695229670705        0.35851079378204
H            0.80043672429712        0.39178532104342       -1.20049233341434
H            0.82864064477454        1.35961049215094        0.28092081918873
H            5.65072727524965        0.18962160187831        2.52439921716387
H            6.92086230741172        2.04958956058166        3.45574069982255
H            9.38229242173965        2.05743918673637        3.34706537548956
H           10.57486614724941        0.19018612559404        2.31571277809823
H           10.54251977035123       -1.98549115930012        1.21306125473423
H           10.54254033726416       -4.16057462825587        0.10797065439553
H            9.31943043024324       -6.03318435843334       -0.87688017512310
H            6.85547104506299       -6.03930108988746       -0.88478343575964
H            5.61408753780188       -4.18845596150531        0.10155557859089
H            5.88432685227017       -4.40045030090483        2.92523935720262
H            3.72645541379902       -5.69502649744830        3.79410423477449
H            1.05147443780823       -5.34153664462628        3.56912523175568
H            0.65481482542898       -4.58270674867839        2.01936381660192
H            0.67549143791489       -3.61316556811932        3.48825489739204
H            5.78234154673324        0.39769262050840       -0.29914941157819
H            3.57182767759117        1.66458156351969       -1.07157458115348
