69
 energy: -14.449241894058 gnorm: 0.000568020265 xtb: 6.6.1 (8d0f1dd)
C            1.02273474432140        0.80247521481865        0.08986142473710
C            2.44182628211664        0.50802093922658        0.35451329435079
N            2.89612435354653       -0.34170406841538        1.28669018647860
C            4.28886838790572       -0.43160966129318        1.29012413818613
C            5.01908790179201       -1.27364262639209        2.15251396303053
C            6.48787857529750       -1.33447829002963        2.12551898473893
C            7.16278739981419       -2.55919895926968        2.19675731544056
C            8.53120521501641       -2.61605272889807        2.17289301172906
C            9.30298230736376       -1.44818406537703        2.07725863065169
C           10.78213865366769       -1.50510197995122        2.05504056752844
C           11.46393554171120       -2.24971302864227        1.04908678707323
C           10.75556731771539       -2.92767223726158        0.03233570604079
C           11.40282917550200       -3.65859073347440       -0.92043454533938
C           12.79453124973886       -3.74943127174626       -0.90962842991027
C           13.51718751882409       -3.09023532955866        0.04071390228632
C           12.88712276468306       -2.30606293109854        1.03303809156571
C           13.64834526922670       -1.59878604279345        2.00497965288137
C           15.13082745613358       -1.64231614082526        1.97622500632931
C           15.84525459434176       -1.16395445430582        0.87096015799536
C           17.21986113497131       -1.20045153641204        0.84968205961871
C           17.91732516673135       -1.71287607453170        1.92631019803683
C           17.23356081986714       -2.19087793312156        3.02726538351291
C           15.85899029416622       -2.15834459198110        3.05523897158435
C           12.96937910989738       -0.84729389765379        3.00423197320801
C           13.68291235883956       -0.10875056346931        3.97489621790813
C           13.03835682264242        0.59003186286328        4.95272128541965
C           11.64500409826994        0.58805078553511        5.01313517621141
C           10.91914178885090       -0.09437349024644        4.08130875931900
C           11.54602916764872       -0.81164594168540        3.03832403710420
C            8.62471197393907       -0.22200298283338        2.00570965979675
C            7.25636974149013       -0.16817995076893        2.02890666579921
C            4.25387989857449       -2.05197384354834        3.04385585234897
C            4.63687518581273       -2.95038075627761        4.06662963868727
C            3.48768568975785       -3.42648642538830        4.67094021766473
C            2.37058272489980       -2.82857526565650        4.05366169820978
C            0.93802593373947       -3.02328221890638        4.33943170462078
N            2.85958005537992       -2.02541957706770        3.09883155217117
B            1.98127636802664       -1.15108051536148        2.20502907711082
F            1.23991656959796       -0.27992791998684        2.99886742175584
F            1.15784678449803       -1.96463279698456        1.43118931562666
C            4.70742898748876        0.43399391918191        0.25297659537837
C            3.58049213443352        1.00546199110932       -0.30910494758560
H            0.39517062659076        0.30974927794215        0.83399027760737
H            0.72713067642832        0.43956232961143       -0.89467067219738
H            0.82958650189929        1.87434558224301        0.13669487354776
H            6.58725076182660       -3.46707949639857        2.24548977999907
H            9.03458728076262       -3.56503624734170        2.24107963717953
H            9.68320867320603       -2.85479662560380        0.00691824473908
H           10.83965043737352       -4.17092253041286       -1.68314404692247
H           13.29751139607998       -4.33984590314009       -1.65781050744710
H           14.58944431614247       -3.17067637210251        0.04452379062599
H           15.30000020521939       -0.75287085348788        0.03886619926087
H           17.75462778211564       -0.82550835762245       -0.00754467450514
H           18.99451308887492       -1.73893125594494        1.90744676643222
H           17.77890996244424       -2.59135620337764        3.86608307081268
H           15.32354306675801       -2.54052744686040        3.90724084312915
H           14.75725687947264       -0.09625931275905        3.93283819852111
H           13.60427961095094        1.14227594855904        5.68490355159301
H           11.14327313071564        1.13038609738631        5.79767134178966
H            9.84583035585796       -0.09805348420356        4.14430702427013
H            9.20043011973340        0.68345540084272        1.92009922795212
H            6.75486606315881        0.78340825849908        2.00003522038328
H            5.64777759162148       -3.19637380507373        4.34298584081436
H            3.44409519072885       -4.12763255094643        5.48778681715813
H            0.78536889246519       -3.47295535168861        5.32079024323009
H            0.48306377929941       -3.66780891993310        3.58692356276207
H            0.41761218360240       -2.06505333792688        4.31318072244699
H            5.72453394087044        0.59406891980044       -0.06115961692391
H            3.56406996756814        1.70515235841902       -1.12820207555803
