75
 energy: -14.854688740376 gnorm: 0.000573838869 xtb: 6.6.1 (8d0f1dd)
C            0.61622558754977        1.27929348038408        0.57593935061760
C            1.98377815311652        0.73747721762841        0.51463197813000
N            2.74993034198596        0.53211661205642        1.57484710283351
C            4.01851989909701       -0.00335511805275        1.24676346244731
C            5.01528055068702       -0.31479786000060        2.20973944193854
C            6.33794056907810       -0.83022976954809        1.81607464666722
C            7.05537015052025       -0.23870856828869        0.77339608156367
C            8.29407980963678       -0.72120631779491        0.40632273884981
C            8.84018468026177       -1.79965359344399        1.06823954958335
Br          10.53666468615131       -2.45414413836204        0.56430113286475
C            8.14908080420287       -2.39991076672768        2.09862971982149
C            6.91017030873893       -1.92253134186194        2.47224315537312
C            4.66897863433171       -0.09169641622647        3.54208764402931
C            5.40874238974292       -0.25076910296655        4.74447616737233
C            4.60577695061319        0.13807597623500        5.79240725098013
C            3.35343578316562        0.55356188539028        5.28067700169567
C            2.18703926828281        1.06815061454267        6.01855615440894
N            3.42676881900264        0.41242984230543        3.95595696563208
B            2.29396962300173        0.80120849660652        3.00756459088755
F            2.01754629149368        2.15654419679853        3.15333448718759
F            1.17483168022171        0.02392702213209        3.28677353193396
C            4.01201139621960       -0.15109789824591       -0.12536709698315
C            2.75806712443460        0.30914110059796       -0.62026694071133
C            2.38120173128136        0.31987482531547       -1.98559167860371
C            1.16605016314845        0.80930415769140       -2.54756228379074
C            1.22812904348431        0.63501591672417       -3.91530966110584
N            2.48086439986751        0.02775926826284       -4.17007367639764
C            3.17908333219417       -0.16528140980114       -3.06870506786818
B            2.94744350486119       -0.36700059125353       -5.57215031512313
F            3.14037045805719       -1.74399598679413       -5.61303321657783
F            4.11073040621284        0.33406722720208       -5.87340251789083
N            1.86074580515021        0.01440605757944       -6.58080253886931
C            1.95597336136716       -0.18154825280309       -7.89203998773307
C            0.77207188837991        0.32728604985781       -8.46531776085381
C           -0.02555181119354        0.83084699715297       -7.46231669097567
C            0.65293958012660        0.63660101463671       -6.23023399783577
C            0.29115921096238        0.96658421296357       -4.92648534423240
C           -0.98456085920847        1.64912836353734       -4.60450814913133
C           -2.20293488032908        0.94610715982690       -4.65417349473642
C           -2.23727962975940       -0.49026830674774       -5.04492662115694
C           -3.37796740880091        1.60545831345888       -4.34634324767321
C           -3.38787595839626        2.94015212818068       -3.97336162558526
C           -4.65925043144256        3.62252274261910       -3.60825175905166
C           -2.18183706494111        3.61860718397603       -3.90743074753757
C           -0.98547164210951        3.00532193555243       -4.22658116713403
C            0.28702461480028        3.77449034674953       -4.14341673681575
H            0.33529225226982        1.45656320495167        1.61516335552945
H           -0.10269488177804        0.57897206722147        0.15070955384995
H            0.54621148000585        2.22839165542467        0.04451845490127
H            6.63914135270489        0.61702937816021        0.27111863432434
H            8.84860322783740       -0.26206233734045       -0.39576945577501
H            8.58816155863237       -3.24576273828881        2.60190165778546
H            6.36085188884060       -2.40486095827072        3.26169353513991
H            6.42692736188279       -0.59228042501083        4.81662522128908
H            4.88015912600147        0.14089415386696        6.83416111722996
H            1.86377555825208        0.36011795393359        6.78184008594757
H            1.35526755490868        1.23342492376005        5.33207964302578
H            2.42077694727421        2.01679885819798        6.50198441049996
H            4.81153294733092       -0.55651391933991       -0.71832914840765
H            0.33852723020141        1.24573001957464       -2.02018604779643
H            4.15496494282194       -0.61622508904599       -3.03070227872334
H            2.79717793106924       -0.63981519321337       -8.38543547048574
H            0.53560939310815        0.32503834889393       -9.51722904876057
H           -0.98940618097578        1.29594989896984       -7.58003214118868
H           -1.32849137617975       -1.00486908285934       -4.73132678136858
H           -2.32752488690835       -0.59630207518781       -6.12619527940701
H           -3.08163696246932       -1.00403758809602       -4.58455253511775
H           -4.30788682125033        1.06705030181188       -4.38936981860942
H           -5.51886399274998        3.12239352465325       -4.05545598100391
H           -4.66138315477970        4.65690535558275       -3.95373058077394
H           -4.79841852437269        3.62824127642972       -2.52669826032462
H           -2.17823854270686        4.64998211914785       -3.60265356130424
H            0.12348574183788        4.83093575347144       -4.35778594796199
H            1.01953868491097        3.40301134817235       -4.86069616133447
H            0.72330882905829        3.69653435736946       -3.14727700163435
