38
 energy: -7.821306752404 gnorm: 0.000490582512 xtb: 6.6.1 (8d0f1dd)
C            1.18799702850245        0.10281924368255       -0.39150740816935
C            2.63240948709325        0.08314903041505       -0.10431938026896
N            3.17753333798511       -0.06213376148626        1.11830451811491
C            4.57596329822827       -0.05533059987446        1.07851092091883
C            5.39444270189563       -0.22337315290582        2.21289753657889
C            6.86257592393799       -0.20761432574762        2.12478531439427
C            7.52833184395561        0.76265229252744        1.36867152531324
C            8.89800605838699        0.77637119781239        1.28553985327386
C            9.66016148373325       -0.17963763396874        1.95118013566194
C           11.05257918755009       -0.16630888482065        1.86317683250099
N           12.21426406671836       -0.15402448504110        1.78872249597661
C            9.00522971655980       -1.14933909141708        2.70534576354113
C            7.63573263912406       -1.16296833115669        2.79247570371144
C            4.71943612198784       -0.40630996106553        3.43586033148636
C            5.19814600321952       -0.55412785720613        4.75410646846333
C            4.10229819683743       -0.66287741918807        5.60096570014130
C            2.92845535079366       -0.57818350288414        4.83538242031991
C            1.52281379862903       -0.62075513758691        5.27508517544115
N            3.32618629890933       -0.42365193207582        3.55921506398868
B            2.35805160028867       -0.25176767419645        2.39219174366119
F            1.57556945885308        0.87632578372947        2.60639895790577
F            1.57825339851242       -1.39539460413097        2.27007678130839
C            4.89540029196902        0.09609103717114       -0.28671230174222
C            3.70707131960281        0.18406829620344       -1.00062139971903
H            0.62286989224964        0.02412653522261        0.53847654108349
H            0.90653665307926       -0.73384568928209       -1.03084501164930
H            0.90058122644402        1.02992363116042       -0.88727717068973
H            6.95038838800440        1.52113155857783        0.87021053439930
H            9.40224360485327        1.53061442800959        0.70588339153404
H            9.59215311463052       -1.89312185572171        3.21668116558577
H            7.13900210260959       -1.93226227095241        3.35742551492674
H            6.23238695707512       -0.55401399894143        5.05217648589687
H            4.13849724475536       -0.77921920436511        6.67121824545623
H            1.44564302447601       -0.73787844357335        6.35600585438734
H            1.00308697601111       -1.45154490228408        4.79685442886507
H            1.01075756202146        0.29805429218167        4.98726526507363
H            5.88809696175403        0.10988876620280       -0.70253991866624
H            3.61575767876199        0.29855862697595       -2.06778807900549
