116
 energy: -24.450570335628 gnorm: 0.000641409820 xtb: 6.6.1 (8d0f1dd)
C            1.15839342120279       -0.39676286707390       -0.65125784557175
C            2.58499664161476       -0.58768882352662       -0.33627209763905
N            3.06735649400316       -1.36330825831151        0.64121517147133
C            4.45994456492623       -1.34940866879996        0.69194601781617
C            5.21912366978522       -2.10100015307825        1.60950605005100
C            6.68874293294907       -2.06630616846493        1.61917821525916
C            7.43763892259877       -3.23781135734796        1.77584893051645
C            8.80791110295387       -3.20797165919318        1.77315903799354
C            9.50652734658123       -2.00752229458740        1.59824355329559
C           10.97818038468627       -1.95915284217281        1.59106523136003
C           11.74642529692670       -2.99620521394286        1.05795444895620
C           13.19213340990412       -3.10242497354443        1.34311649180614
C           14.08384016268526       -3.50865977176888        0.34691778173159
C           15.43114355092261       -3.61843743016671        0.60540480690717
C           15.92122527917249       -3.33180154394176        1.86419763800348
C           15.05676147688993       -2.93901398438835        2.86673784467296
C           13.70876371660023       -2.82921542169667        2.61285370089904
C           11.15146311640379       -4.01863556554844        0.17159777684212
C           11.49868255357846       -5.36539218406174        0.30662956533282
C           10.94754087884752       -6.32257457927245       -0.51437563910659
C           10.04363820782341       -5.95906557139682       -1.49316640654517
C            9.69643838636487       -4.63199093518605       -1.65254576114117
C           10.24579672464472       -3.67111203545265       -0.83488470326843
C           11.62453413312846       -0.75612829041695        2.16187069499897
C           12.68034307733288       -0.12070214496434        1.50344930918312
C           13.27191402149643        1.00143218679713        2.03717520011672
C           12.82077908579739        1.51900879794138        3.23523783340631
C           11.77272273877821        0.91120061725971        3.89794840136618
C           11.17856334508890       -0.21178417825005        3.36844986750138
C            8.75644641328464       -0.83431215382281        1.45772890651427
C            7.38588314093256       -0.86266303213242        1.46631252082547
C            4.48191669184352       -2.90294480411018        2.50554314701327
C            4.90768834863034       -3.74778786833447        3.57889165626257
C            3.79991967106115       -4.30620097007279        4.15485803154881
C            2.64158437494722       -3.82518990814870        3.47203900590339
C            1.27382597526081       -4.11013260754321        3.68331560523197
C            0.79980256000685       -4.96905661879253        4.61867142554317
C           -0.58679614721288       -5.27646869379310        4.83143646716400
C           -0.94935037357012       -6.21552198138952        5.80781958863207
C           -2.26279867862638       -6.53263702277812        6.03216965742755
C           -3.29184576930860       -5.92187891209642        5.30219753891304
C           -4.70644946346968       -6.25790101425896        5.52400009511968
C           -5.19971611520197       -6.57501230794621        6.79329830348043
C           -6.51276866824829       -7.23030435217261        6.96118659429055
C           -7.35988479559947       -6.86521257116662        8.01108740792104
C           -8.58316229460613       -7.47333823642564        8.17738009097284
C           -8.98908953300511       -8.46416825951085        7.30532846046850
C           -8.16366183671038       -8.84856386332072        6.26725041036216
C           -6.93939420597926       -8.24366956083089        6.09780965516688
C           -4.44264822394199       -6.24208469925593        8.01757805735455
C           -4.38691490659754       -7.14034232313011        9.08672330877390
C           -3.68415371847759       -6.83451381181315       10.22972559183223
C           -3.02699154753482       -5.62459173482970       10.33732950114889
C           -3.08006406935874       -4.71663415636796        9.29814779433995
C           -3.78246514653647       -5.01728578877262        8.15380621052640
C           -5.60579304271705       -6.23991945969057        4.34819610802364
C           -6.86649495218311       -5.64119737964522        4.40983043312667
C           -7.69493345792866       -5.62599714576083        3.31097797038165
C           -7.28341415387511       -6.20091063231318        2.12492145240089
C           -6.03743125308201       -6.79012816975670        2.04006855421917
C           -5.20602807572521       -6.80869964887655        3.13678687509599
C           -2.92757230676214       -4.99316001031877        4.31804536010367
C           -1.61460494198234       -4.67566593504950        4.08948743594711
N            3.10968321606752       -2.98656546222340        2.50727209128527
B            2.19123930229105       -2.20841358114407        1.56522163513310
F            1.36353594679235       -1.37172749270496        2.31066439877453
F            1.44420114992140       -3.10368107031588        0.80245170457162
C            4.85067055509189       -0.49520758905791       -0.36901754357680
C            3.70787971732831       -0.03058056915948       -0.98561234188201
H            0.54300683149966       -0.96187234763043        0.05032300731138
H            0.93140489652960       -0.74585139739714       -1.65884735220753
H            0.87956339856771        0.65469538712239       -0.57787900220534
H            6.92104192576517       -4.17725996777474        1.86736842437355
H            9.36389687216403       -4.11976206201901        1.90353003416147
H           13.70161501146943       -3.72809451544931       -0.63506401291697
H           16.10498826193968       -3.92837502288525       -0.17649390325729
H           16.97675802398352       -3.41683663012935        2.06461512387339
H           15.43836546895343       -2.71794845611689        3.85010926894314
H           13.03478125935312       -2.53063004150061        3.39677450955937
H           12.19995049421000       -5.64728085374264        1.07304183621459
H           11.22033562071955       -7.35800642865418       -0.39171169925624
H            9.61022594662665       -6.71046443795962       -2.13280049583732
H            8.99247911842175       -4.34801005954227       -2.41756072581181
H            9.97951547971311       -2.63590657924831       -0.96074243948371
H           13.02750412357214       -0.52286045080990        0.56744968342477
H           14.08854626921494        1.47673064764610        1.51880130502575
H           13.28516068935328        2.39777958570350        3.65196237884383
H           11.41946321869959        1.31643395416233        4.83202597422628
H           10.36438347247355       -0.69001269666059        3.88524508903815
H            9.27440111414161        0.10089087040524        1.33339955125487
H            6.82860581664696        0.05382879736006        1.38033128597415
H            5.92600616925456       -3.89548911002046        3.89513365880881
H            3.79693969875400       -4.98502292878236        4.99069348083505
H            0.58945390861919       -3.60249549171179        3.02948596814826
H            1.51226357380059       -5.47058583462204        5.24882588592466
H           -0.17557368611707       -6.69325266165181        6.38402856492453
H           -2.51828583420105       -7.26650966137306        6.77631193570983
H           -7.04524367830361       -6.08922318509248        8.68735933094890
H           -9.22607954654511       -7.17475992415466        8.98917009974742
H           -9.94821712381873       -8.93804907498435        7.43600137631007
H           -8.47879796605924       -9.62352584127465        5.58782125123875
H           -6.29372587281981       -8.54871070501309        5.29283138156632
H           -4.89620309614004       -8.08459661670908        8.99950783884921
H           -3.64511937075479       -7.54172021496992       11.04205378260253
H           -2.47449839046676       -5.38810332996881       11.23196832718570
H           -2.57015721614583       -3.77098961828424        9.38311714846127
H           -3.83022928165713       -4.30760852130596        7.34607924378942
H           -7.18379146791872       -5.18970553695374        5.33384395683054
H           -8.66648433343028       -5.16424623990095        3.37694142315829
H           -7.93335931116368       -6.18833018390339        1.26531111352124
H           -5.71528229209054       -7.23669727813486        1.11363273914601
H           -4.23631015006660       -7.27174765669168        3.07442038866028
H           -3.70356964401360       -4.51702583535239        3.74395455502475
H           -1.37182437457999       -3.95339950820560        3.33110207981463
H            5.86279897719090       -0.27379402231891       -0.66147683642545
H            3.66835296573276        0.63471839987017       -1.83225681860017
