71
 energy: -14.630170199365 gnorm: 0.000555031023 xtb: 6.6.1 (8d0f1dd)
C            1.25784266952114        0.62371901031056       -0.21511322492249
C            2.68105287196470        0.33279172163588       -0.46058694879069
N            3.14838279063214       -0.64189906305760       -1.25691774268349
C            4.54459118214956       -0.66955831526245       -1.29682881152400
C            5.29084341628592       -1.57984166762012       -2.07135481921681
C            6.76132225621408       -1.58082149827495       -2.07112055497186
C            7.48442989128007       -1.70561523211717       -3.26285568958137
C            8.85464665162618       -1.69484499988500       -3.26292539023203
C            9.57939245512863       -1.55208235263815       -2.07220199281183
C           11.05023839926041       -1.53647298602107       -2.06123168101583
C           11.78401415218418       -0.95458270502730       -3.10693607231867
C           13.21063498668691       -1.27299164280889       -3.30671849908165
C           14.10987253201089       -0.28676758526639       -3.72488034995489
C           15.43970183655781       -0.57927696158869       -3.92139009575696
C           15.90607343673056       -1.86227002430554       -3.71126376290671
C           15.03486140845054       -2.85462419575499       -3.30665334776871
C           13.70410820441277       -2.56720174356772       -3.10976108433868
C           11.16145989775776        0.01137414915663       -4.03295157501339
C           11.48660762867103        0.00820482999237       -5.39307110174564
C           10.91373403447468        0.91104416873254       -6.25874167771849
C           10.00750058416521        1.84218141460632       -5.79044387864069
C            9.67827354214256        1.86997798337165       -4.44953654999911
C           10.24928860834655        0.97036453054089       -3.57959982666909
C           11.73669796125017       -2.14416353588770       -0.90226144590184
C           12.85986196766014       -1.54202657186737       -0.32672724225259
C           13.48929359157874       -2.10992193097360        0.75683707440611
C           13.01155984090195       -3.28756871671067        1.29718240905117
C           11.89877024315366       -3.89544621626112        0.74987604421531
C           11.26658861323858       -3.33211827581205       -0.33476181667413
C            8.85389613534153       -1.44507417430175       -0.87880855918706
C            7.48355717480867       -1.45479157408336       -0.87874367897593
C            4.54021069608376       -2.48821469762794       -2.84391528164347
C            4.93954467712969       -3.55296197255479       -3.68293306948209
C            3.79799474944868       -4.15951349310398       -4.17982465031966
C            2.67068661122144       -3.49627268535026       -3.66073289860724
C            1.24594572776140       -3.79691371608953       -3.88477606731510
N            3.14360154593651       -2.51877164475866       -2.87115832291334
B            2.24948973209729       -1.58035738890046       -2.06131251503222
F            1.46732918696508       -2.33006716402776       -1.18610738921427
F            1.46158591739085       -0.83015816291750       -2.93119470137523
C            4.94984907066831        0.39508837575546       -0.46054905158515
C            3.81180469076928        0.99785411508896        0.04875363920395
H            0.63323906550536       -0.08207066147809       -0.76480484658249
H            1.00309633659994        1.63079534583539       -0.54584101791828
H            1.01825131050926        0.53544183281298        0.84478385404188
H            6.94651857109496       -1.78064864525850       -4.19181386905768
H            9.39176216675124       -1.79460761018142       -4.18982873974361
H           13.74793669992507        0.71457681988435       -3.88240698491639
H           16.11924340463865        0.19447091368913       -4.23926017481750
H           16.94830820661554       -2.08927869364748       -3.86486212731169
H           15.39825082988830       -3.85637406904932       -3.14549166815987
H           13.02456701488503       -3.34318246775596       -2.80315197539245
H           12.18772889617490       -0.72201135619822       -5.75862950653028
H           11.17174606807611        0.89104998941322       -7.30485842445488
H            9.55875572655438        2.54757523382318       -6.47043167035772
H            8.97165551261564        2.59702662540618       -4.08423393297591
H            9.99661117241114        0.99581075609545       -2.53390190339654
H           13.22815064621701       -0.62095723205599       -0.74391423459112
H           14.35656005368484       -1.63466681819549        1.18506342253880
H           13.50550778243799       -3.73087662467060        2.14626273156682
H           11.52499977417255       -4.81333474566538        1.17316065423480
H           10.40339213480824       -3.80898498803741       -0.76602611592048
H            9.39145492948259       -1.34251228753848        0.04783875276470
H            6.94462608746646       -1.38875191293018        0.05033202945819
H            5.95411314779341       -3.85814863910005       -3.87346866087891
H            3.76746537648128       -5.00725823550558       -4.84406231689231
H            1.00251242611293       -3.76447636405122       -4.94699387334820
H            0.62532000092863       -3.06216715063781       -3.36951908603380
H            0.99058936912817       -4.78458378816531       -3.50003585943354
H            5.96572241421023        0.70097146348282       -0.27810371930738
H            3.78576330476287        1.84262590492224        0.71692146469941
