52
 energy: -9.731728633671 gnorm: 0.000878185662 xtb: 6.6.1 (8d0f1dd)
C            1.16508216113245       -0.26802101370969        0.97018788495313
C            2.59200996713080       -0.46420125182358        0.66039146879363
N            3.07787446979635       -1.30403394725754       -0.26512104453235
C            4.46637271629290       -1.26298670920568       -0.34369126544010
C            5.22623389007448       -2.02160853170519       -1.26496307308608
C            6.68656655282354       -1.95800495582808       -1.30850842707667
C            7.38416608508113       -1.98216615133211       -2.52867613241231
C            8.74687130242859       -1.91786757510563       -2.57157049041808
C            9.51762394883044       -1.82974107852630       -1.39112198846122
N           10.89918660318877       -1.78265567726496       -1.43174692509508
C           11.67993840806728       -1.71543627829579       -2.68844911662260
C           12.30887340986030       -3.07641019160231       -2.99863856113099
C           13.20861332573628       -3.52354460719442       -1.83323029379813
C           12.43646595928101       -3.49313971029779       -0.50176317218812
C           11.77333258580752       -2.12746615135740       -0.28154779222523
C            8.81198016577738       -1.80685647178677       -0.16793582334972
C            7.44902000087991       -1.86715670317482       -0.13100055297865
C            4.48026218837293       -2.84709791728303       -2.13900175908203
C            4.88976573640330       -3.77683139110325       -3.12252620523349
C            3.75713432501299       -4.35428644184171       -3.66502391835122
C            2.62588917809892       -3.81445661703610       -3.02454100329672
C            1.20428484257046       -4.12133136540446       -3.26084726247673
N            3.09146429309631       -2.93228304955052       -2.12847453580732
B            2.18979876689759       -2.15885228029229       -1.16792862969646
F            1.47091029583278       -3.05903732733110       -0.38606877896431
F            1.34293569759235       -1.32954960142200       -1.89818782925146
C            4.85124434923876       -0.29206398624301        0.60953320626285
C            3.70752539847388        0.18556882026858        1.22142747071581
H            0.55787230676212       -0.96206087255311        0.38725998794336
H            0.84960739438089        0.74611876652581        0.72462910549128
H            0.96619712170914       -0.44629518555273        2.02710615952522
H            6.82097700314898       -2.01369612383059       -3.44488238197458
H            9.23741102083593       -1.96120099684228       -3.52614923866248
H           12.46504435860673       -0.96513400069973       -2.54999801443174
H           11.06542372576455       -1.34093770165953       -3.51127147189972
H           12.86711709853664       -3.04655834841817       -3.94409976397879
H           11.51087070798573       -3.81384308715464       -3.14520915798696
H           14.07729519237789       -2.85721975543413       -1.76642948956315
H           13.62051672173327       -4.52464022380093       -2.02187566997698
H           13.09524184926578       -3.74689510497137        0.33993922404778
H           11.66067752369559       -4.26810527219384       -0.51559156079924
H           12.53346830008046       -1.34549942120524       -0.18880025200737
H           11.21085981458116       -2.10911780850387        0.65438522492878
H            9.35141539866605       -1.71695993129058        0.75632503176619
H            6.93908618479950       -1.88187560269770        0.81629225380807
H            5.90618555294725       -4.02198388860698       -3.37856950101745
H            3.73390484410052       -5.10607333863287       -4.43652516043367
H            1.02765506593016       -5.19675828058633       -3.24407665871737
H            0.87752182276541       -3.73174148071400       -4.22476274055165
H            0.58907743070211       -3.66267523126470       -2.48566031620933
H            5.85485572868653        0.04829790490170        0.79871074574529
H            3.66489120813960        0.94152314789055        1.98801819522717
