50
 energy: -9.433161981761 gnorm: 0.000567325207 xtb: 6.6.1 (8d0f1dd)
C            1.16015260717729        0.43784835833521       -0.12294727231092
C            2.59444561391498        0.43419268144366        0.21369521872291
N            3.11830195197086       -0.00471990206240        1.36693569542278
C            4.50600699874301        0.08937588482702        1.39189040637346
C            5.30567386521297       -0.35142075595316        2.47292256584803
C            6.76487098252791       -0.25610216123845        2.45319860166583
C            7.56967026804566       -1.28665382464096        2.96957245010175
C            8.93175148548130       -1.21033055805679        2.93775886577876
C            9.59196116879074       -0.08825947533618        2.39092463375359
N           10.97281098744147       -0.01179731300322        2.35366752545219
C           11.73223984696336        1.19940382380338        1.99623815068140
C           12.47695763021348        0.96518082301267        0.68589446139949
O           13.35130633694249       -0.15011600258217        0.79851104541524
C           12.66356735327591       -1.34196263939857        1.15939542779973
C           11.87798170224808       -1.17405604057574        2.46112237782450
C            8.78014427409238        0.94911694264795        1.88193633621533
C            7.41837032760111        0.86385266124772        1.91005276357324
C            4.60066174657031       -0.90599502554696        3.56715037203665
C            5.04258684424612       -1.37416585204320        4.82599842101685
C            3.93444606862112       -1.77831624802880        5.54676151067482
C            2.78403847717542       -1.55821822495751        4.76448040315923
C            1.37079467276927       -1.81844305904076        5.09184635509448
N            3.21693651399403       -1.03976630265747        3.60748227365560
B            2.27398443971934       -0.60523073009108        2.48850792313284
F            1.39770177098160        0.36076836621020        2.97256905941437
F            1.59127567067939       -1.71678195401840        2.00468764238416
C            4.85153540934359        0.61716877774964        0.12647706114134
C            3.68480717990363        0.83050066735424       -0.58330704203883
H            0.57459170776270        0.11778518647244        0.74018009175301
H            0.95180822733248       -0.24711547151235       -0.94490212843946
H            0.82745469778956        1.43544137706835       -0.40971632038008
H            7.09180376272969       -2.16631246004630        3.36368461570363
H            9.50885300450152       -2.00781856220362        3.36765944467097
H           12.45173365415984        1.38758645487217        2.79907767203574
H           11.08618876814013        2.08000470182699        1.95729816778686
H           13.07686424879624        1.83439106902057        0.38816555564813
H           11.77491335341093        0.75560937933135       -0.12886359060787
H           13.41101274331459       -2.14202053850251        1.23317138561851
H           11.99376684258635       -1.59953065451407        0.33119450312889
H           12.56076970982432       -1.00074916028101        3.29795332437950
H           11.31809898881751       -2.08261587750713        2.69429361558157
H            9.23915934884189        1.81037051625045        1.43324066858154
H            6.82266933649667        1.68037090360743        1.54129445550194
H            6.06019709119071       -1.37668088872871        5.17714543596740
H            3.93840431012203       -2.17841454063035        6.54710245961435
H            1.24834254716461       -2.09953545835690        6.13792620416094
H            0.97899081142415       -2.62191126541503        4.46754535896284
H            0.77108770131407       -0.92819327112862        4.89876559303049
H            5.85113664328732        0.78079516208108       -0.23778899651540
H            3.61140030635537        1.21814048090117       -1.58586074956360
