86
 energy: -17.350951100724 gnorm: 0.000781805946 xtb: 6.6.1 (8d0f1dd)
C            0.67032416534381       -0.17604491454162       -1.00397113748538
C            2.10339192239919        0.00840812742836       -0.72118448231902
N            2.88131066329808        0.87871085006179       -1.34675361534565
C            4.21713849973860        0.86299045023361       -0.87882475590546
C            5.25018047244474        1.68183715484547       -1.41049463678653
C            6.64676862520907        1.54822230239433       -0.96797498129482
C            7.21956293749089        0.27679603299235       -0.79909017908570
C            8.52643287352638        0.11942097501564       -0.40262262627147
C            9.29552750441469        1.25079488852012       -0.16378144740505
C            8.74284256636538        2.52706718438988       -0.32292526845866
C            7.43489331773024        2.67983846389313       -0.71983721910951
C            9.79285737512841        3.55573532099717        0.00646419194930
C           11.01073954977863        2.74339775253037        0.36321013341425
C           12.27757005951722        3.13872519672592        0.74069979748910
C           13.22805392419348        2.17021248035429        1.00979927677334
C           12.91847931359361        0.82330929961474        0.90308731003127
C           11.65460754177643        0.41784092373358        0.52706199513938
C           10.69530995348338        1.38454117579451        0.25715012728068
C            4.86371709689383        2.58215960861519       -2.40557447040914
C            5.61581970096628        3.50327030918426       -3.18195182342049
C            4.75432763180777        4.12673963031478       -4.05626402875378
C            3.45176506152353        3.61053574416940       -3.86116820506452
C            2.21536806278931        3.95091295680452       -4.58593327502057
N            3.55260881693279        2.70015576943066       -2.89020657502475
B            2.37925898405599        1.83912817140813       -2.42360468708002
F            1.89207279119515        1.10502470055302       -3.50072444623561
F            1.39389600273319        2.66006275873728       -1.88367571645731
C            4.24052467932773       -0.07113352148369        0.13692948727780
C            2.94043937439780       -0.64051312656689        0.25289672748339
C            2.58344414673984       -1.66288098740008        1.16747755771722
C            1.35867273885649       -2.38915304259028        1.22197002372446
C            1.45322042958135       -3.30728983672404        2.24872583350668
N            2.73291061035788       -3.11538876164121        2.82178442082318
C            3.42138062687956       -2.17330364225330        2.20828534801528
B            3.23208801719203       -3.90903272837536        4.03093819010047
F            3.48123622366408       -3.02763061981715        5.07889133193826
F            4.37089816234963       -4.62006124261843        3.66370959924092
N            2.14389290277760       -4.89823334851935        4.45847828246428
C            2.26004110851103       -5.74588030587119        5.47566198680397
C            1.07222292929854       -6.50635709849832        5.50845590129076
C            0.25154473241921       -6.09103931647084        4.48413890745378
C            0.91748409257285       -5.04459730163966        3.79268655700545
C            0.52795265313785       -4.28581818364093        2.69167634933813
C           -0.75000165431126       -4.52007489572248        1.97799840165606
C           -1.97248857764960       -4.10722329854009        2.54009670852729
C           -2.01309418258497       -3.43548965548671        3.86821180438417
C           -3.14778457754296       -4.34379646245104        1.85217182599298
C           -3.15366843595803       -4.96265917044443        0.61178048206531
C           -4.42438273510255       -5.18682235687114       -0.13051927258298
C           -1.94418695201245       -5.34900991982050        0.05817940784229
C           -0.74724106721308       -5.15104365057706        0.71929647088241
C            0.52945664744786       -5.58278410720779        0.08517753180687
H            0.33331652736614        0.57980215317825       -1.71488514010170
H            0.07434496645489       -0.07257678733774       -0.09708244255488
H            0.48109002765700       -1.15519827669920       -1.44397959319922
H            6.62082874103966       -0.59073073730979       -1.01530180680239
H            8.95791076449718       -0.85824775598000       -0.28077474484443
H            7.01419043944250        3.66370228846995       -0.81482032555042
H            9.47835140272942        4.18330219703665        0.84692986729671
H            9.99039947891945        4.20541051601510       -0.85264514194615
H           12.51032912440523        4.18608940686944        0.82036206419415
H           14.22085580973018        2.46707009305876        1.30506603472994
H           13.67315849095851        0.08415414485226        1.11569681465346
H           11.40547186873799       -0.62497137609109        0.44070988140589
H            6.67809638533633        3.66347960677970       -3.11609550121658
H            5.02161955797946        4.87270097649792       -4.78611856357847
H            2.00106584697106        5.01732558267072       -4.51430166907350
H            1.37210669164282        3.40444657162877       -4.16115183104519
H            2.29576674664501        3.68345698076121       -5.63959546620389
H            5.09482573658142       -0.33057559238673        0.73537696226737
H            0.51141261517146       -2.27655056486241        0.57144069803712
H            4.41130232504711       -1.85582754344794        2.48441388378689
H            3.11816896223093       -5.81565441008723        6.12340596759912
H            0.84853329925728       -7.28652478965782        6.21823013332102
H           -0.72103605717912       -6.48318427869619        4.24008988272072
H           -1.08769454894928       -2.89306513511627        4.06440542602489
H           -2.15138356550723       -4.16404993624707        4.66742922547403
H           -2.83206736128642       -2.71746341412632        3.92064627209501
H           -4.08076591723765       -4.03346053034895        2.28775644904286
H           -5.29254061247014       -5.02244886357430        0.50841370473535
H           -4.47918329220927       -6.20834502024028       -0.50850699546494
H           -4.50054640455173       -4.50847640026251       -0.98095320526222
H           -1.93838402352254       -5.81830106576016       -0.90956076806099
H            0.38016608762166       -6.46167943472747       -0.54261647361914
H            1.27660105288615       -5.83907339622269        0.83700610313580
H            0.94053152612613       -4.78862194161601       -0.53866882187612
