65
 energy: -11.836476342216 gnorm: 0.000935441172 xtb: 6.6.1 (8d0f1dd)
C            1.73437729487342        0.34847454269265       -0.71920723402433
C            1.71151444677890        0.07648169469639        0.72669155112641
N            2.64541184579401        0.47036260271940        1.61899608867686
C            2.35784778475043        0.05371282848165        2.92844751589536
C            3.16943214425564        0.33929607962828        4.03972868163149
C            2.82993550534115       -0.12904914171309        5.40150455245235
C            2.47153461461994        0.77898709310746        6.40104386844809
C            2.15685106373830        0.34172972127687        7.66713116097406
C            2.19164908055705       -1.00702062429371        7.96323233812224
C            2.54406680296456       -1.91993689412149        6.98825468950611
C            2.86100877314389       -1.48891568281246        5.72052587039731
C            4.32096014607736        1.10197342289422        3.78056164139005
C            5.36707882834283        1.54020064704936        4.62674500485431
C            6.27090281102450        2.26736349082343        3.85552803695852
C            5.82721608104294        2.28673765586653        2.51885871505053
C            6.44396117467001        2.91290168482913        1.33764567419229
N            4.67368583357257        1.58627766555881        2.51155718769333
B            3.86009511434264        1.32103024466792        1.24421718920183
F            3.42325668720742        2.53431762345270        0.71783053174441
F            4.64696805408275        0.61921347340805        0.33345351001747
C            7.46236869595759        2.80175217835011        4.62136662354745
C            6.90384731878770        3.68116830626252        5.78781832544641
C            5.89348421758624        2.85040674363548        6.65902676357167
C            5.75128909231626        1.40445226921376        6.08438796533352
C            7.16597878536539        0.74094228584736        6.12759788083341
C            8.18255389412417        1.57311170037735        5.26562166842070
C            1.13303930971927       -0.64589501239363        2.81303753835433
C            0.75419149698526       -0.63530817638261        1.47288964716352
C           -0.54379367625767       -1.35544324464143        1.17831034810459
C           -0.38150728548233       -2.82429656952514        1.69012779910775
C            0.03428832415132       -2.82819086264981        3.20588658810853
C            0.16662512938416       -1.36245659164476        3.73128822755752
C           -1.22632560967571       -0.67376444578695        3.55998347803019
C           -1.65272339222175       -0.67877281530120        2.04760901379721
H            0.79782917981136        0.79980904123025       -1.04778865038717
H            2.54692923786371        1.03712453201412       -0.95548767852330
H            1.89356438338977       -0.57001716029326       -1.28473608846439
H            2.44257031775069        1.82826664808140        6.16282309723544
H            1.88209999445832        1.05295572895657        8.42879141762538
H            1.94370782767355       -1.34707828765062        8.95543648501755
H            2.57168548153592       -2.97178168196557        7.22133723739675
H            3.14053205774695       -2.19455608401014        4.95728257481618
H            7.40693425589044        3.36306050383067        1.57950255353771
H            5.79030879310166        3.68755085589410        0.93537164852795
H            6.59612609295394        2.16962467909483        0.55418025154589
H            8.12843113390926        3.37086528417288        3.95518737565160
H            6.41308757917533        4.56948832734295        5.37447460460850
H            7.73153331270608        4.05102934237583        6.40324139607925
H            4.91151540598365        3.33652073899025        6.67758736856226
H            6.22822562048765        2.80410054262634        7.70136531246110
H            5.00501834599126        0.81057290372619        6.63210394511712
H            7.09904400858608       -0.28758967805819        5.75518966566355
H            7.50954010271054        0.66561158059649        7.16538868059948
H            8.61936901272577        0.94867083746209        4.47813019098987
H            9.02166019864874        1.91582762327443        5.88132740776944
H           -0.77366508785890       -1.31257685682436        0.10263945227922
H            0.37034697737505       -3.34266787504574        1.08451983497338
H           -1.31848027121702       -3.37359386283466        1.54536015123212
H            0.98620144328344       -3.35389321724674        3.34151289654510
H           -0.70137148522244       -3.37312317249256        3.80789863654498
H            0.51555188720300       -1.32349761322100        4.77355101975983
H           -1.17479761923942        0.35290519820394        3.93988463313953
H           -1.97358919994988       -1.18735500197090        4.17520223280266
H           -1.82584505846618        0.34364442500618        1.69331456865863
H           -2.60201431691903       -1.21001219484582        1.91606933655695
